REMARK  Name = 
REMARK  6 active torsions:
REMARK  status: ('A' for Active; 'I' for Inactive)
REMARK    1  A    between atoms: C_7  and  S_8
REMARK    2  A    between atoms: S_8  and  C_9
REMARK    3  A    between atoms: C_13  and  O_14
REMARK    4  A    between atoms: O_14  and  C_15
REMARK    5  A    between atoms: C_26  and  C_27
REMARK    6  A    between atoms: C_28  and  P_29
REMARK                            x       y       z     vdW  Elec       q    Type
REMARK                         _______ _______ _______ _____ _____    ______ ____
ROOT
ATOM      1  C   UNL     1       2.513   3.517   0.141  0.00  0.00    +0.000 A 
ATOM      2  C   UNL     1       1.661   3.853   1.218  0.00  0.00    +0.000 A 
ATOM      3  C   UNL     1       0.966   5.055   1.250  0.00  0.00    +0.000 A 
ATOM      4  C   UNL     1       1.160   5.973   0.230  0.00  0.00    +0.000 A 
ATOM      5  C   UNL     1       2.081   5.711  -0.800  0.00  0.00    +0.000 A 
ATOM      6  C   UNL     1       2.698   4.436  -0.929  0.00  0.00    +0.000 A 
ENDROOT
BRANCH   6   7
ATOM      7  C   UNL     1       3.532   4.121  -2.122  0.00  0.00    +0.000 C 
ATOM      8  C   UNL     1       3.233   4.451  -3.401  0.00  0.00    +0.000 C 
BRANCH   8   9
ATOM      9  P   UNL     1       4.184   4.069  -4.917  0.00  0.00    +0.000 P 
ATOM     10  O   UNL     1       5.416   4.697  -4.203  0.00  0.00    +0.000 OA
ATOM     11  O   UNL     1       3.774   2.581  -4.697  0.00  0.00    +0.000 OA
ATOM     12  O   UNL     1       5.083   3.708  -6.351  0.00  0.00    +0.000 OA
ENDBRANCH   8   9
ENDBRANCH   6   7
BRANCH   1  13
ATOM     13  S   UNL     1       3.395   1.972   0.411  0.00  0.00    +0.000 S 
BRANCH  13  20
ATOM     14  O   UNL     1       0.767  -2.376  -3.361  0.00  0.00    +0.000 OA
ATOM     15  C   UNL     1       0.774  -1.651  -2.371  0.00  0.00    +0.000 A 
ATOM     16  N   UNL     1      -0.184  -1.773  -1.394  0.00  0.00    +0.000 N 
ATOM     17  C   UNL     1      -0.146  -1.050  -0.222  0.00  0.00    +0.000 A 
ATOM     18  N   UNL     1       0.744  -0.175   0.125  0.00  0.00    +0.000 NA
ATOM     19  C   UNL     1       1.724   0.039  -0.858  0.00  0.00    +0.000 A 
ATOM     20  C   UNL     1       2.831   0.911  -0.842  0.00  0.00    +0.000 A 
ATOM     21  C   UNL     1       3.497   0.709  -2.030  0.00  0.00    +0.000 A 
ATOM     22  N   UNL     1       2.782  -0.181  -2.793  0.00  0.00    +0.000 N 
ATOM     23  C   UNL     1       1.736  -0.657  -2.046  0.00  0.00    +0.000 A 
ATOM     24  H   UNL     1      -0.900  -2.459  -1.562  0.00  0.00    +0.000 HD
ATOM     25  H   UNL     1       3.003  -0.397  -3.757  0.00  0.00    +0.000 HD
ENDBRANCH  13  20
ENDBRANCH   1  13
BRANCH   5  26
ATOM     26  O   UNL     1       2.389   6.682  -1.738  0.00  0.00    +0.000 OA
BRANCH  26  27
ATOM     27  C   UNL     1       2.436   8.015  -1.410  0.00  0.00    +0.000 A 
ATOM     28  C   UNL     1       2.788   8.554  -0.167  0.00  0.00    +0.000 A 
ATOM     29  F   UNL     1       3.174   7.777   0.856  0.00  0.00    +0.000 F 
ATOM     30  C   UNL     1       2.704   9.926   0.057  0.00  0.00    +0.000 A 
ATOM     31  F   UNL     1       2.939  10.422   1.282  0.00  0.00    +0.000 F 
ATOM     32  C   UNL     1       2.341  10.783  -0.971  0.00  0.00    +0.000 A 
ATOM     33  F   UNL     1       2.230  12.100  -0.740  0.00  0.00    +0.000 F 
ATOM     34  C   UNL     1       2.073  10.272  -2.230  0.00  0.00    +0.000 A 
ATOM     35  F   UNL     1       1.732  11.104  -3.225  0.00  0.00    +0.000 F 
ATOM     36  C   UNL     1       2.119   8.899  -2.448  0.00  0.00    +0.000 A 
ATOM     37  F   UNL     1       1.804   8.430  -3.664  0.00  0.00    +0.000 F 
ENDBRANCH  26  27
ENDBRANCH   5  26
TORSDOF 6
