CHEMBL5434022
 OpenBabel05022511353D

 45 45  0  0  0  0  0  0  0  0999 V2000
    2.7019    0.8561    0.9316 C   0  0  0  0  0  0  0  0  0  0  0  0
    2.6825   -0.6185    1.3332 C   0  0  0  0  0  0  0  0  0  0  0  0
    1.2654   -1.0199    1.7469 C   0  0  0  0  0  0  0  0  0  0  0  0
    3.1101   -1.4111    0.2176 O   0  0  0  0  0  0  0  0  0  0  0  0
    4.4657   -1.6692    0.0905 C   0  0  0  0  0  0  0  0  0  0  0  0
    5.4196   -1.0809    0.9476 C   0  0  0  0  0  0  0  0  0  0  0  0
    6.7605   -1.4363    0.8980 C   0  0  0  0  0  0  0  0  0  0  0  0
    7.1615   -2.4349    0.0297 C   0  0  0  0  0  0  0  0  0  0  0  0
    6.2405   -3.0545   -0.8308 C   0  0  0  0  0  0  0  0  0  0  0  0
    6.8962   -4.4397   -1.7668 S   0  0  0  0  0  0  0  0  0  0  0  0
    6.5813   -5.8124   -0.7301 C   0  0  0  0  0  0  0  0  0  0  0  0
    5.8493   -6.9194   -1.1026 C   0  0  0  0  0  0  0  0  0  0  0  0
    5.8729   -7.8464   -0.0879 N   0  0  0  0  0  0  0  0  0  0  0  0
    6.6186   -7.3530    0.9385 C   0  0  0  0  0  0  0  0  0  0  0  0
    6.9266   -7.9696    2.1847 C   0  0  0  0  0  0  0  0  0  0  0  0
    6.5471   -9.0698    2.5611 O   0  0  0  0  0  0  0  0  0  0  0  0
    7.7322   -7.1760    2.9688 N   0  0  0  0  0  0  0  0  0  0  0  0
    8.1592   -5.9324    2.5634 C   0  0  0  0  0  0  0  0  0  0  0  0
    7.9002   -5.3465    1.4281 N   0  0  0  0  0  0  0  0  0  0  0  0
    7.0673   -6.0938    0.5693 C   0  0  0  0  0  0  0  0  0  0  0  0
    4.8944   -2.5967   -0.8969 C   0  0  0  0  0  0  0  0  0  0  0  0
    3.9819   -3.1503   -1.9357 C   0  0  0  0  0  0  0  0  0  0  0  0
    3.7647   -2.6813   -3.1954 C   0  0  0  0  0  0  0  0  0  0  0  0
    2.8024   -3.5171   -4.5085 P   0  0  0  0  0  0  0  0  0  0  0  0
    2.4998   -4.7081   -3.5348 O   0  0  0  0  0  0  0  0  0  0  0  0
    1.6929   -2.4317   -4.2790 O   0  5  0  0  0  0  0  0  0  0  0  0
    1.8926   -4.3072   -5.7498 O   0  5  0  0  0  0  0  0  0  0  0  0
   -0.1640    2.1032    1.5396 Na  0  3  0  0  0  0  0  0  0  0  0  0
    0.6890   -3.9357   -3.4009 Na  0  3  0  0  0  0  0  0  0  0  0  0
    2.4060    1.4986    1.7665 H   0  0  0  0  0  0  0  0  0  0  0  0
    2.0250    1.0365    0.0894 H   0  0  0  0  0  0  0  0  0  0  0  0
    3.6964    1.1692    0.6001 H   0  0  0  0  0  0  0  0  0  0  0  0
    3.2922   -0.7901    2.2277 H   0  0  0  0  0  0  0  0  0  0  0  0
    0.5840   -1.0520    0.8923 H   0  0  0  0  0  0  0  0  0  0  0  0
    0.8655   -0.3249    2.4948 H   0  0  0  0  0  0  0  0  0  0  0  0
    1.2712   -2.0194    2.1964 H   0  0  0  0  0  0  0  0  0  0  0  0
    5.1637   -0.3320    1.6868 H   0  0  0  0  0  0  0  0  0  0  0  0
    7.4811   -0.9712    1.5637 H   0  0  0  0  0  0  0  0  0  0  0  0
    8.2013   -2.7556    0.0384 H   0  0  0  0  0  0  0  0  0  0  0  0
    5.3256   -7.1157   -2.0289 H   0  0  0  0  0  0  0  0  0  0  0  0
    5.4325   -8.7515   -0.1140 H   0  0  0  0  0  0  0  0  0  0  0  0
    8.0005   -7.5524    3.8656 H   0  0  0  0  0  0  0  0  0  0  0  0
    8.8063   -5.4387    3.3092 H   0  0  0  0  0  0  0  0  0  0  0  0
    3.5540   -4.1099   -1.6533 H   0  0  0  0  0  0  0  0  0  0  0  0
    4.2202   -1.7545   -3.5150 H   0  0  0  0  0  0  0  0  0  0  0  0
  1  2  1  0  0  0  0
  1 30  1  0  0  0  0
  1 31  1  0  0  0  0
  1 32  1  0  0  0  0
  2  3  1  0  0  0  0
  2  4  1  0  0  0  0
  2 33  1  0  0  0  0
  3 34  1  0  0  0  0
  3 35  1  0  0  0  0
  3 36  1  0  0  0  0
  4  5  1  0  0  0  0
  5  6  1  0  0  0  0
  5 21  2  0  0  0  0
  6  7  2  0  0  0  0
  6 37  1  0  0  0  0
  7  8  1  0  0  0  0
  7 38  1  0  0  0  0
  8  9  2  0  0  0  0
  8 39  1  0  0  0  0
  9 10  1  0  0  0  0
  9 21  1  0  0  0  0
 10 11  1  0  0  0  0
 11 12  2  0  0  0  0
 11 20  1  0  0  0  0
 12 13  1  0  0  0  0
 12 40  1  0  0  0  0
 13 14  1  0  0  0  0
 13 41  1  0  0  0  0
 14 15  1  0  0  0  0
 14 20  2  0  0  0  0
 15 16  2  0  0  0  0
 15 17  1  0  0  0  0
 17 18  1  0  0  0  0
 17 42  1  0  0  0  0
 18 19  2  0  0  0  0
 18 43  1  0  0  0  0
 19 20  1  0  0  0  0
 21 22  1  0  0  0  0
 22 23  2  0  0  0  0
 22 44  1  0  0  0  0
 23 24  1  0  0  0  0
 23 45  1  0  0  0  0
 24 25  2  0  0  0  0
 24 26  1  0  0  0  0
 24 27  1  0  0  0  0
M  CHG  4  26  -1  27  -1  28   1  29   1
M  END
$$$$
CHEMBL5395250
 OpenBabel05022511393D

 30 32  0  0  0  0  0  0  0  0999 V2000
   -1.1099   -2.3404   -1.1474 O   0  0  0  0  0  0  0  0  0  0  0  0
   -0.2314   -1.5619   -1.5014 C   0  0  0  0  0  0  0  0  0  0  0  0
    0.1225   -1.3821   -2.8162 N   0  0  0  0  0  0  0  0  0  0  0  0
    1.1149   -0.5113   -3.2077 C   0  0  0  0  0  0  0  0  0  0  0  0
    1.8281    0.2469   -2.4342 N   0  0  0  0  0  0  0  0  0  0  0  0
    1.5115    0.1118   -1.0771 C   0  0  0  0  0  0  0  0  0  0  0  0
    2.0868    0.7525    0.0348 C   0  0  0  0  0  0  0  0  0  0  0  0
    3.4175    1.8780    0.0270 S   0  0  0  0  0  0  0  0  0  0  0  0
    2.5874    3.4644   -0.0177 C   0  0  0  0  0  0  0  0  0  0  0  0
    2.1782    4.0141    1.2101 C   0  0  0  0  0  0  0  0  0  0  0  0
    1.6256    5.2949    1.2795 C   0  0  0  0  0  0  0  0  0  0  0  0
    1.4814    6.0499    0.1223 C   0  0  0  0  0  0  0  0  0  0  0  0
    1.8725    5.5143   -1.1028 C   0  0  0  0  0  0  0  0  0  0  0  0
    2.4194    4.2170   -1.1960 C   0  0  0  0  0  0  0  0  0  0  0  0
    2.8196    3.7317   -2.5684 C   0  0  0  0  0  0  0  0  0  0  0  0
    1.7061    3.8221   -3.4571 O   0  0  0  0  0  0  0  0  0  0  0  0
    1.4470    0.2515    1.1532 C   0  0  0  0  0  0  0  0  0  0  0  0
    0.5006   -0.6591    0.7342 N   0  0  0  0  0  0  0  0  0  0  0  0
    0.5416   -0.7446   -0.6299 C   0  0  0  0  0  0  0  0  0  0  0  0
   -0.3835   -1.9316   -3.4952 H   0  0  0  0  0  0  0  0  0  0  0  0
    1.2728   -0.5003   -4.2980 H   0  0  0  0  0  0  0  0  0  0  0  0
    2.3066    3.4517    2.1320 H   0  0  0  0  0  0  0  0  0  0  0  0
    1.3256    5.7080    2.2390 H   0  0  0  0  0  0  0  0  0  0  0  0
    1.0718    7.0562    0.1703 H   0  0  0  0  0  0  0  0  0  0  0  0
    1.7588    6.1165   -2.0037 H   0  0  0  0  0  0  0  0  0  0  0  0
    3.1671    2.6984   -2.5857 H   0  0  0  0  0  0  0  0  0  0  0  0
    3.6271    4.3578   -2.9621 H   0  0  0  0  0  0  0  0  0  0  0  0
    0.9365    3.5030   -2.9534 H   0  0  0  0  0  0  0  0  0  0  0  0
    1.5906    0.4462    2.2072 H   0  0  0  0  0  0  0  0  0  0  0  0
   -0.1148   -1.1991    1.3313 H   0  0  0  0  0  0  0  0  0  0  0  0
  1  2  2  0  0  0  0
  2  3  1  0  0  0  0
  2 19  1  0  0  0  0
  3  4  1  0  0  0  0
  3 20  1  0  0  0  0
  4  5  2  0  0  0  0
  4 21  1  0  0  0  0
  5  6  1  0  0  0  0
  6  7  1  0  0  0  0
  6 19  2  0  0  0  0
  7  8  1  0  0  0  0
  7 17  2  0  0  0  0
  8  9  1  0  0  0  0
  9 10  1  0  0  0  0
  9 14  2  0  0  0  0
 10 11  2  0  0  0  0
 10 22  1  0  0  0  0
 11 12  1  0  0  0  0
 11 23  1  0  0  0  0
 12 13  2  0  0  0  0
 12 24  1  0  0  0  0
 13 14  1  0  0  0  0
 13 25  1  0  0  0  0
 14 15  1  0  0  0  0
 15 16  1  0  0  0  0
 15 26  1  0  0  0  0
 15 27  1  0  0  0  0
 16 28  1  0  0  0  0
 17 18  1  0  0  0  0
 17 29  1  0  0  0  0
 18 19  1  0  0  0  0
 18 30  1  0  0  0  0
M  END
$$$$
CHEMBL5414001
 OpenBabel05022511443D

 34 33  0  0  0  0  0  0  0  0999 V2000
   -1.9819   -1.7456   -0.1333 O   0  0  0  0  0  0  0  0  0  0  0  0
   -1.3688   -0.7195   -0.3784 C   0  0  0  0  0  0  0  0  0  0  0  0
   -1.9546    0.3730   -1.0010 N   0  0  0  0  0  0  0  0  0  0  0  0
   -1.2245    1.4379   -1.4825 C   0  0  0  0  0  0  0  0  0  0  0  0
    0.0611    1.5922   -1.3849 N   0  0  0  0  0  0  0  0  0  0  0  0
    0.6605    0.6236   -0.5632 C   0  0  0  0  0  0  0  0  0  0  0  0
    1.9828    0.5811   -0.0987 C   0  0  0  0  0  0  0  0  0  0  0  0
    3.2430    1.7416   -0.3735 S   0  0  0  0  0  0  0  0  0  0  0  0
    2.4296    3.3715   -0.1751 C   0  0  0  0  0  0  0  0  0  0  0  0
    1.7529    3.6712    1.1705 C   0  0  0  0  0  0  0  0  0  0  0  0
    2.6094    3.6550    2.3023 O   0  0  0  0  0  0  0  0  0  0  0  0
    3.6233    4.6713    2.2867 C   0  0  0  0  0  0  0  0  0  0  0  0
    4.6294    4.5616    3.4332 C   0  0  0  0  0  0  0  0  0  0  0  0
    5.5722    3.0027    3.6062 P   0  0  0  0  0  0  0  0  0  0  0  0
    4.3513    2.4332    4.3739 O   0  0  0  0  0  0  0  0  0  0  0  0
    5.4210    2.7850    2.0789 O   0  5  0  0  0  0  0  0  0  0  0  0
    6.4635    1.5291    3.7698 O   0  5  0  0  0  0  0  0  0  0  0  0
    2.1334   -0.6355    0.5364 C   0  0  0  0  0  0  0  0  0  0  0  0
    0.9108   -1.2815    0.5314 N   0  0  0  0  0  0  0  0  0  0  0  0
    0.0092   -0.4987   -0.1436 C   0  0  0  0  0  0  0  0  0  0  0  0
    1.7849    0.6981   -3.0423 Na  0  3  0  0  0  0  0  0  0  0  0  0
    4.2961    1.2024    2.8127 Na  0  3  0  0  0  0  0  0  0  0  0  0
   -2.9400    0.2947   -1.1870 H   0  0  0  0  0  0  0  0  0  0  0  0
   -1.8378    2.1786   -2.0261 H   0  0  0  0  0  0  0  0  0  0  0  0
    1.6977    3.4892   -0.9783 H   0  0  0  0  0  0  0  0  0  0  0  0
    3.2008    4.1183   -0.3820 H   0  0  0  0  0  0  0  0  0  0  0  0
    0.9544    2.9456    1.3591 H   0  0  0  0  0  0  0  0  0  0  0  0
    1.2629    4.6517    1.1207 H   0  0  0  0  0  0  0  0  0  0  0  0
    3.1271    5.6472    2.3420 H   0  0  0  0  0  0  0  0  0  0  0  0
    4.1721    4.6477    1.3427 H   0  0  0  0  0  0  0  0  0  0  0  0
    4.1273    4.7827    4.3837 H   0  0  0  0  0  0  0  0  0  0  0  0
    5.3789    5.3512    3.2984 H   0  0  0  0  0  0  0  0  0  0  0  0
    2.9909   -1.1004    1.0135 H   0  0  0  0  0  0  0  0  0  0  0  0
    0.7161   -2.1861    0.9524 H   0  0  0  0  0  0  0  0  0  0  0  0
  1  2  2  0  0  0  0
  2  3  1  0  0  0  0
  2 20  1  0  0  0  0
  3  4  1  0  0  0  0
  3 23  1  0  0  0  0
  4  5  2  0  0  0  0
  4 24  1  0  0  0  0
  5  6  1  0  0  0  0
  6  7  1  0  0  0  0
  6 20  2  0  0  0  0
  7  8  1  0  0  0  0
  7 18  2  0  0  0  0
  8  9  1  0  0  0  0
  9 10  1  0  0  0  0
  9 25  1  0  0  0  0
  9 26  1  0  0  0  0
 10 11  1  0  0  0  0
 10 27  1  0  0  0  0
 10 28  1  0  0  0  0
 11 12  1  0  0  0  0
 12 13  1  0  0  0  0
 12 29  1  0  0  0  0
 12 30  1  0  0  0  0
 13 14  1  0  0  0  0
 13 31  1  0  0  0  0
 13 32  1  0  0  0  0
 14 15  2  0  0  0  0
 14 16  1  0  0  0  0
 14 17  1  0  0  0  0
 18 19  1  0  0  0  0
 18 33  1  0  0  0  0
 19 20  1  0  0  0  0
 19 34  1  0  0  0  0
M  CHG  4  16  -1  17  -1  21   1  22   1
M  END
$$$$
CHEMBL5399481
 OpenBabel05022511483D

 38 38  0  0  0  0  0  0  0  0999 V2000
    8.5828    2.8616    3.6871 O   0  0  0  0  0  0  0  0  0  0  0  0
    7.4910    2.3338    3.4887 C   0  0  0  0  0  0  0  0  0  0  0  0
    6.9399    1.4189    4.3564 N   0  0  0  0  0  0  0  0  0  0  0  0
    5.6926    0.8668    4.1676 C   0  0  0  0  0  0  0  0  0  0  0  0
    4.8619    1.0911    3.1842 N   0  0  0  0  0  0  0  0  0  0  0  0
    5.4041    1.9845    2.2323 C   0  0  0  0  0  0  0  0  0  0  0  0
    4.8594    2.4311    1.0115 C   0  0  0  0  0  0  0  0  0  0  0  0
    3.3242    2.0107    0.3045 S   0  0  0  0  0  0  0  0  0  0  0  0
    2.5515    3.6161    0.1404 C   0  0  0  0  0  0  0  0  0  0  0  0
    1.8112    4.0589    1.2554 C   0  0  0  0  0  0  0  0  0  0  0  0
    1.2217    5.3207    1.2741 C   0  0  0  0  0  0  0  0  0  0  0  0
    1.3785    6.1640    0.1841 C   0  0  0  0  0  0  0  0  0  0  0  0
    2.0853    5.7276   -0.9372 C   0  0  0  0  0  0  0  0  0  0  0  0
    2.6513    4.4373   -1.0004 C   0  0  0  0  0  0  0  0  0  0  0  0
    3.3752    4.0713   -2.2865 C   0  0  0  0  0  0  0  0  0  0  0  0
    3.2076    2.7137   -2.6312 O   0  0  0  0  0  0  0  0  0  0  0  0
    3.9046    2.3738   -3.8574 C   0  0  0  0  0  0  0  0  0  0  0  0
    3.7583    0.5943   -4.2585 P   0  0  0  0  0  0  0  0  0  0  0  0
    4.2650    0.2265   -2.8325 O   0  0  0  0  0  0  0  0  0  0  0  0
    2.2095    0.7238   -4.2406 O   0  5  0  0  0  0  0  0  0  0  0  0
    3.6201   -1.0880   -4.6377 O   0  5  0  0  0  0  0  0  0  0  0  0
    5.8093    3.2472    0.4318 C   0  0  0  0  0  0  0  0  0  0  0  0
    6.8865    3.3369    1.2770 N   0  0  0  0  0  0  0  0  0  0  0  0
    6.6396    2.5595    2.3792 C   0  0  0  0  0  0  0  0  0  0  0  0
    2.6635    0.3846    2.3860 Na  0  3  0  0  0  0  0  0  0  0  0  0
    2.4639   -1.0010   -3.0761 Na  0  3  0  0  0  0  0  0  0  0  0  0
    7.5022    1.1945    5.1670 H   0  0  0  0  0  0  0  0  0  0  0  0
    5.4166    0.1687    4.9749 H   0  0  0  0  0  0  0  0  0  0  0  0
    1.6909    3.4297    2.1312 H   0  0  0  0  0  0  0  0  0  0  0  0
    0.6518    5.6486    2.1390 H   0  0  0  0  0  0  0  0  0  0  0  0
    0.9438    7.1599    0.1958 H   0  0  0  0  0  0  0  0  0  0  0  0
    2.1882    6.4054   -1.7833 H   0  0  0  0  0  0  0  0  0  0  0  0
    4.4368    4.3172   -2.1824 H   0  0  0  0  0  0  0  0  0  0  0  0
    2.9674    4.6739   -3.1072 H   0  0  0  0  0  0  0  0  0  0  0  0
    4.9670    2.6245   -3.7602 H   0  0  0  0  0  0  0  0  0  0  0  0
    3.4777    2.9564   -4.6817 H   0  0  0  0  0  0  0  0  0  0  0  0
    5.8264    3.7492   -0.5237 H   0  0  0  0  0  0  0  0  0  0  0  0
    7.7430    3.8488    1.0977 H   0  0  0  0  0  0  0  0  0  0  0  0
  1  2  2  0  0  0  0
  2  3  1  0  0  0  0
  2 24  1  0  0  0  0
  3  4  1  0  0  0  0
  3 27  1  0  0  0  0
  4  5  2  0  0  0  0
  4 28  1  0  0  0  0
  5  6  1  0  0  0  0
  6  7  1  0  0  0  0
  6 24  2  0  0  0  0
  7  8  1  0  0  0  0
  7 22  2  0  0  0  0
  8  9  1  0  0  0  0
  9 10  1  0  0  0  0
  9 14  2  0  0  0  0
 10 11  2  0  0  0  0
 10 29  1  0  0  0  0
 11 12  1  0  0  0  0
 11 30  1  0  0  0  0
 12 13  2  0  0  0  0
 12 31  1  0  0  0  0
 13 14  1  0  0  0  0
 13 32  1  0  0  0  0
 14 15  1  0  0  0  0
 15 16  1  0  0  0  0
 15 33  1  0  0  0  0
 15 34  1  0  0  0  0
 16 17  1  0  0  0  0
 17 18  1  0  0  0  0
 17 35  1  0  0  0  0
 17 36  1  0  0  0  0
 18 19  2  0  0  0  0
 18 20  1  0  0  0  0
 18 21  1  0  0  0  0
 22 23  1  0  0  0  0
 22 37  1  0  0  0  0
 23 24  1  0  0  0  0
 23 38  1  0  0  0  0
M  CHG  4  20  -1  21  -1  25   1  26   1
M  END
$$$$
CHEMBL5404279
 OpenBabel05022511533D

 39 39  0  0  0  0  0  0  0  0999 V2000
    3.8217    0.2361   -1.3264 C   0  0  0  0  0  0  0  0  0  0  0  0
    2.9728   -0.1039   -0.2293 O   0  0  0  0  0  0  0  0  0  0  0  0
    3.5794   -0.0655    0.9974 C   0  0  0  0  0  0  0  0  0  0  0  0
    2.9388   -0.7877    2.0026 C   0  0  0  0  0  0  0  0  0  0  0  0
    3.3755   -0.7022    3.3242 C   0  0  0  0  0  0  0  0  0  0  0  0
    4.4781    0.0878    3.6668 C   0  0  0  0  0  0  0  0  0  0  0  0
    4.6258    0.6244    5.3731 S   0  0  0  0  0  0  0  0  0  0  0  0
    5.2346   -0.7412    6.2368 C   0  0  0  0  0  0  0  0  0  0  0  0
    6.4617   -0.7785    6.8737 C   0  0  0  0  0  0  0  0  0  0  0  0
    6.5460   -1.9620    7.5599 N   0  0  0  0  0  0  0  0  0  0  0  0
    5.3853   -2.6645    7.3837 C   0  0  0  0  0  0  0  0  0  0  0  0
    4.9954   -3.9161    7.9439 C   0  0  0  0  0  0  0  0  0  0  0  0
    5.6765   -4.5906    8.7177 O   0  0  0  0  0  0  0  0  0  0  0  0
    3.7373   -4.2791    7.5358 N   0  0  0  0  0  0  0  0  0  0  0  0
    2.9558   -3.5038    6.7102 C   0  0  0  0  0  0  0  0  0  0  0  0
    3.2707   -2.3532    6.2021 N   0  0  0  0  0  0  0  0  0  0  0  0
    4.5762   -1.9375    6.5655 C   0  0  0  0  0  0  0  0  0  0  0  0
    5.1906    0.7298    2.6365 C   0  0  0  0  0  0  0  0  0  0  0  0
    6.3300    1.6011    2.8880 C   0  0  0  0  0  0  0  0  0  0  0  0
    6.1427    2.9156    3.0430 C   0  0  0  0  0  0  0  0  0  0  0  0
    7.4642    4.1191    3.3788 P   0  0  0  0  0  0  0  0  0  0  0  0
    7.3219    5.1287    2.2420 O   0  0  0  0  0  0  0  0  0  0  0  0
    7.0680    4.6933    4.7383 O   0  5  0  0  0  0  0  0  0  0  0  0
    8.7888    3.3641    3.3799 O   0  5  0  0  0  0  0  0  0  0  0  0
    4.7141    0.6766    1.3146 C   0  0  0  0  0  0  0  0  0  0  0  0
    2.9781    2.4531    3.6457 Na  0  3  0  0  0  0  0  0  0  0  0  0
   -2.2564   -0.0906   -1.4568 Na  0  3  0  0  0  0  0  0  0  0  0  0
    3.2519    0.0725   -2.2456 H   0  0  0  0  0  0  0  0  0  0  0  0
    4.7015   -0.4149   -1.3512 H   0  0  0  0  0  0  0  0  0  0  0  0
    4.1049    1.2933   -1.3023 H   0  0  0  0  0  0  0  0  0  0  0  0
    2.0824   -1.4111    1.7626 H   0  0  0  0  0  0  0  0  0  0  0  0
    2.8176   -1.2272    4.0933 H   0  0  0  0  0  0  0  0  0  0  0  0
    7.2629   -0.0522    6.9161 H   0  0  0  0  0  0  0  0  0  0  0  0
    7.3286   -2.2603    8.1391 H   0  0  0  0  0  0  0  0  0  0  0  0
    3.3962   -5.1549    7.9006 H   0  0  0  0  0  0  0  0  0  0  0  0
    1.9647   -3.9510    6.5069 H   0  0  0  0  0  0  0  0  0  0  0  0
    7.3377    1.1901    2.9377 H   0  0  0  0  0  0  0  0  0  0  0  0
    5.2041    3.4229    2.9972 H   0  0  0  0  0  0  0  0  0  0  0  0
    5.2382    1.2770    0.5706 H   0  0  0  0  0  0  0  0  0  0  0  0
  1  2  1  0  0  0  0
  1 28  1  0  0  0  0
  1 29  1  0  0  0  0
  1 30  1  0  0  0  0
  2  3  1  0  0  0  0
  3  4  1  0  0  0  0
  3 25  2  0  0  0  0
  4  5  2  0  0  0  0
  4 31  1  0  0  0  0
  5  6  1  0  0  0  0
  5 32  1  0  0  0  0
  6  7  1  0  0  0  0
  6 18  2  0  0  0  0
  7  8  1  0  0  0  0
  8  9  2  0  0  0  0
  8 17  1  0  0  0  0
  9 10  1  0  0  0  0
  9 33  1  0  0  0  0
 10 11  1  0  0  0  0
 10 34  1  0  0  0  0
 11 12  1  0  0  0  0
 11 17  2  0  0  0  0
 12 13  2  0  0  0  0
 12 14  1  0  0  0  0
 14 15  1  0  0  0  0
 14 35  1  0  0  0  0
 15 16  2  0  0  0  0
 15 36  1  0  0  0  0
 16 17  1  0  0  0  0
 18 19  1  0  0  0  0
 18 25  1  0  0  0  0
 19 20  2  0  0  0  0
 19 37  1  0  0  0  0
 20 21  1  0  0  0  0
 20 38  1  0  0  0  0
 21 22  2  0  0  0  0
 21 23  1  0  0  0  0
 21 24  1  0  0  0  0
 25 39  1  0  0  0  0
M  CHG  4  23  -1  24  -1  26   1  27   1
M  END
$$$$
CHEMBL5424391
 OpenBabel05022511573D

 45 45  0  0  0  0  0  0  0  0999 V2000
    1.3198    0.1636    0.3131 C   0  0  0  0  0  0  0  0  0  0  0  0
    2.5102   -0.3042    1.1483 C   0  0  0  0  0  0  0  0  0  0  0  0
    2.0530   -0.7321    2.5382 C   0  0  0  0  0  0  0  0  0  0  0  0
    3.1091   -1.4226    0.5016 O   0  0  0  0  0  0  0  0  0  0  0  0
    4.4748   -1.5518    0.5832 C   0  0  0  0  0  0  0  0  0  0  0  0
    5.3322   -0.7056    1.2727 C   0  0  0  0  0  0  0  0  0  0  0  0
    6.7155   -0.8581    1.1668 C   0  0  0  0  0  0  0  0  0  0  0  0
    7.2823   -1.8941    0.4124 C   0  0  0  0  0  0  0  0  0  0  0  0
    9.0699   -1.8525    0.2909 S   0  0  0  0  0  0  0  0  0  0  0  0
    9.2961   -1.0749   -1.2565 C   0  0  0  0  0  0  0  0  0  0  0  0
    9.3215   -1.7382   -2.4667 C   0  0  0  0  0  0  0  0  0  0  0  0
    9.5876   -0.8256   -3.4651 N   0  0  0  0  0  0  0  0  0  0  0  0
    9.7285    0.4135   -2.9078 C   0  0  0  0  0  0  0  0  0  0  0  0
   10.0497    1.6416   -3.5442 C   0  0  0  0  0  0  0  0  0  0  0  0
   10.2093    1.8180   -4.7470 O   0  0  0  0  0  0  0  0  0  0  0  0
   10.1651    2.6699   -2.6384 N   0  0  0  0  0  0  0  0  0  0  0  0
    9.9637    2.4966   -1.2879 C   0  0  0  0  0  0  0  0  0  0  0  0
    9.6453    1.3949   -0.6782 N   0  0  0  0  0  0  0  0  0  0  0  0
    9.5570    0.2986   -1.5542 C   0  0  0  0  0  0  0  0  0  0  0  0
    6.4338   -2.8473   -0.1788 C   0  0  0  0  0  0  0  0  0  0  0  0
    6.9247   -4.0904   -0.8079 C   0  0  0  0  0  0  0  0  0  0  0  0
    6.2816   -4.6644   -1.8343 C   0  0  0  0  0  0  0  0  0  0  0  0
    6.6425   -6.2629   -2.6282 P   0  0  0  0  0  0  0  0  0  0  0  0
    5.3883   -7.1080   -2.3722 O   0  0  0  0  0  0  0  0  0  0  0  0
    6.8185   -5.9273   -4.1107 O   0  5  0  0  0  0  0  0  0  0  0  0
    7.8985   -6.8532   -1.9896 O   0  5  0  0  0  0  0  0  0  0  0  0
    5.0302   -2.6397   -0.0961 C   0  0  0  0  0  0  0  0  0  0  0  0
   -1.2031   -2.8698   -0.1197 Na  0  3  0  0  0  0  0  0  0  0  0  0
    1.4257    3.0408    2.7106 Na  0  3  0  0  0  0  0  0  0  0  0  0
    0.7693    0.9583    0.8284 H   0  0  0  0  0  0  0  0  0  0  0  0
    0.6326   -0.6568    0.0874 H   0  0  0  0  0  0  0  0  0  0  0  0
    1.6685    0.5646   -0.6454 H   0  0  0  0  0  0  0  0  0  0  0  0
    3.1719    0.5644    1.2108 H   0  0  0  0  0  0  0  0  0  0  0  0
    1.4552   -1.6491    2.4877 H   0  0  0  0  0  0  0  0  0  0  0  0
    1.4622    0.0493    3.0247 H   0  0  0  0  0  0  0  0  0  0  0  0
    2.9155   -0.9551    3.1750 H   0  0  0  0  0  0  0  0  0  0  0  0
    4.9878    0.0995    1.9031 H   0  0  0  0  0  0  0  0  0  0  0  0
    7.3651   -0.1476    1.6722 H   0  0  0  0  0  0  0  0  0  0  0  0
    9.1955   -2.7890   -2.6977 H   0  0  0  0  0  0  0  0  0  0  0  0
    9.6792   -1.0582   -4.4463 H   0  0  0  0  0  0  0  0  0  0  0  0
   10.4125    3.5700   -3.0234 H   0  0  0  0  0  0  0  0  0  0  0  0
   10.0856    3.4279   -0.7143 H   0  0  0  0  0  0  0  0  0  0  0  0
    7.8003   -4.5921   -0.3978 H   0  0  0  0  0  0  0  0  0  0  0  0
    5.4192   -4.2319   -2.3067 H   0  0  0  0  0  0  0  0  0  0  0  0
    4.3635   -3.3596   -0.5712 H   0  0  0  0  0  0  0  0  0  0  0  0
  1  2  1  0  0  0  0
  1 30  1  0  0  0  0
  1 31  1  0  0  0  0
  1 32  1  0  0  0  0
  2  3  1  0  0  0  0
  2  4  1  0  0  0  0
  2 33  1  0  0  0  0
  3 34  1  0  0  0  0
  3 35  1  0  0  0  0
  3 36  1  0  0  0  0
  4  5  1  0  0  0  0
  5  6  1  0  0  0  0
  5 27  2  0  0  0  0
  6  7  2  0  0  0  0
  6 37  1  0  0  0  0
  7  8  1  0  0  0  0
  7 38  1  0  0  0  0
  8  9  1  0  0  0  0
  8 20  2  0  0  0  0
  9 10  1  0  0  0  0
 10 11  2  0  0  0  0
 10 19  1  0  0  0  0
 11 12  1  0  0  0  0
 11 39  1  0  0  0  0
 12 13  1  0  0  0  0
 12 40  1  0  0  0  0
 13 14  1  0  0  0  0
 13 19  2  0  0  0  0
 14 15  2  0  0  0  0
 14 16  1  0  0  0  0
 16 17  1  0  0  0  0
 16 41  1  0  0  0  0
 17 18  2  0  0  0  0
 17 42  1  0  0  0  0
 18 19  1  0  0  0  0
 20 21  1  0  0  0  0
 20 27  1  0  0  0  0
 21 22  2  0  0  0  0
 21 43  1  0  0  0  0
 22 23  1  0  0  0  0
 22 44  1  0  0  0  0
 23 24  2  0  0  0  0
 23 25  1  0  0  0  0
 23 26  1  0  0  0  0
 27 45  1  0  0  0  0
M  CHG  4  25  -1  26  -1  28   1  29   1
M  END
$$$$
CHEMBL5399935
 OpenBabel05022512023D

 26 28  0  0  0  0  0  0  0  0999 V2000
   -1.6854   -1.8153    0.0315 O   0  0  0  0  0  0  0  0  0  0  0  0
   -1.1591   -0.7116   -0.0379 C   0  0  0  0  0  0  0  0  0  0  0  0
   -1.8803    0.4582   -0.0700 N   0  0  0  0  0  0  0  0  0  0  0  0
   -1.2842    1.6985   -0.1458 C   0  0  0  0  0  0  0  0  0  0  0  0
   -0.0122    1.9470   -0.1920 N   0  0  0  0  0  0  0  0  0  0  0  0
    0.7797    0.7906   -0.1499 C   0  0  0  0  0  0  0  0  0  0  0  0
    2.1828    0.6725   -0.1293 C   0  0  0  0  0  0  0  0  0  0  0  0
    3.3563    1.9610   -0.0763 S   0  0  0  0  0  0  0  0  0  0  0  0
    3.7485    2.2155   -1.8048 C   0  0  0  0  0  0  0  0  0  0  0  0
    2.7405    2.7113   -2.6467 C   0  0  0  0  0  0  0  0  0  0  0  0
    3.0013    3.0069   -3.9865 C   0  0  0  0  0  0  0  0  0  0  0  0
    4.2801    2.8251   -4.5048 C   0  0  0  0  0  0  0  0  0  0  0  0
    5.2956    2.3355   -3.6844 C   0  0  0  0  0  0  0  0  0  0  0  0
    5.0336    2.0285   -2.3414 C   0  0  0  0  0  0  0  0  0  0  0  0
    6.4949    1.3626   -1.3181 Br  0  0  0  0  0  0  0  0  0  0  0  0
    2.4650   -0.6792   -0.0698 C   0  0  0  0  0  0  0  0  0  0  0  0
    1.2715   -1.3664   -0.0504 N   0  0  0  0  0  0  0  0  0  0  0  0
    0.2409   -0.4676   -0.0855 C   0  0  0  0  0  0  0  0  0  0  0  0
   -2.8837    0.3663   -0.0295 H   0  0  0  0  0  0  0  0  0  0  0  0
   -2.0133    2.5244   -0.1678 H   0  0  0  0  0  0  0  0  0  0  0  0
    1.7386    2.8861   -2.2581 H   0  0  0  0  0  0  0  0  0  0  0  0
    2.2058    3.3927   -4.6198 H   0  0  0  0  0  0  0  0  0  0  0  0
    4.4880    3.0705   -5.5431 H   0  0  0  0  0  0  0  0  0  0  0  0
    6.2926    2.2051   -4.0987 H   0  0  0  0  0  0  0  0  0  0  0  0
    3.4059   -1.2101   -0.0160 H   0  0  0  0  0  0  0  0  0  0  0  0
    1.1623   -2.3718    0.0134 H   0  0  0  0  0  0  0  0  0  0  0  0
  1  2  2  0  0  0  0
  2  3  1  0  0  0  0
  2 18  1  0  0  0  0
  3  4  1  0  0  0  0
  3 19  1  0  0  0  0
  4  5  2  0  0  0  0
  4 20  1  0  0  0  0
  5  6  1  0  0  0  0
  6  7  1  0  0  0  0
  6 18  2  0  0  0  0
  7  8  1  0  0  0  0
  7 16  2  0  0  0  0
  8  9  1  0  0  0  0
  9 10  1  0  0  0  0
  9 14  2  0  0  0  0
 10 11  2  0  0  0  0
 10 21  1  0  0  0  0
 11 12  1  0  0  0  0
 11 22  1  0  0  0  0
 12 13  2  0  0  0  0
 12 23  1  0  0  0  0
 13 14  1  0  0  0  0
 13 24  1  0  0  0  0
 14 15  1  0  0  0  0
 16 17  1  0  0  0  0
 16 25  1  0  0  0  0
 17 18  1  0  0  0  0
 17 26  1  0  0  0  0
M  END
$$$$
CHEMBL5435392
 OpenBabel05022512063D

 35 35  0  0  0  0  0  0  0  0999 V2000
    6.5021    2.1372    5.9238 O   0  0  0  0  0  0  0  0  0  0  0  0
    5.6252    1.7054    5.2073 C   0  0  0  0  0  0  0  0  0  0  0  0
    4.7778    0.6828    5.5775 N   0  0  0  0  0  0  0  0  0  0  0  0
    3.7535    0.2120    4.7833 C   0  0  0  0  0  0  0  0  0  0  0  0
    3.4280    0.6264    3.5896 N   0  0  0  0  0  0  0  0  0  0  0  0
    4.3039    1.6286    3.1258 C   0  0  0  0  0  0  0  0  0  0  0  0
    4.3438    2.2666    1.8743 C   0  0  0  0  0  0  0  0  0  0  0  0
    3.3280    1.9720    0.5079 S   0  0  0  0  0  0  0  0  0  0  0  0
    2.5549    3.5630    0.2386 C   0  0  0  0  0  0  0  0  0  0  0  0
    1.7779    4.0699    1.3034 C   0  0  0  0  0  0  0  0  0  0  0  0
    1.2009    5.3386    1.2453 C   0  0  0  0  0  0  0  0  0  0  0  0
    1.3984    6.1296    0.1241 C   0  0  0  0  0  0  0  0  0  0  0  0
    2.1405    5.6322   -0.9436 C   0  0  0  0  0  0  0  0  0  0  0  0
    2.6954    4.3427   -0.9184 C   0  0  0  0  0  0  0  0  0  0  0  0
    3.3609    4.0699   -2.0747 O   0  0  0  0  0  0  0  0  0  0  0  0
    3.4472    2.7399   -2.5750 C   0  0  0  0  0  0  0  0  0  0  0  0
    1.8359    1.8257   -2.7916 P   0  0  0  0  0  0  0  0  0  0  0  0
    1.8020    1.4669   -4.2773 O   0  0  0  0  0  0  0  0  0  0  0  0
    2.0472    0.4852   -2.0661 O   0  5  0  0  0  0  0  0  0  0  0  0
    0.6721    2.6112   -2.2509 O   0  5  0  0  0  0  0  0  0  0  0  0
    5.3829    3.1711    1.9101 C   0  0  0  0  0  0  0  0  0  0  0  0
    5.9749    3.0912    3.1447 N   0  0  0  0  0  0  0  0  0  0  0  0
    5.3253    2.1437    3.8820 C   0  0  0  0  0  0  0  0  0  0  0  0
    2.1382   -0.4209   -3.9014 Na  0  3  0  0  0  0  0  0  0  0  0  0
    1.2807    0.6079    1.6018 Na  0  3  0  0  0  0  0  0  0  0  0  0
    4.9385    0.3021    6.5019 H   0  0  0  0  0  0  0  0  0  0  0  0
    3.1840   -0.5985    5.2661 H   0  0  0  0  0  0  0  0  0  0  0  0
    1.6259    3.4900    2.2073 H   0  0  0  0  0  0  0  0  0  0  0  0
    0.6033    5.7091    2.0721 H   0  0  0  0  0  0  0  0  0  0  0  0
    0.9619    7.1212    0.0605 H   0  0  0  0  0  0  0  0  0  0  0  0
    2.2683    6.2404   -1.8373 H   0  0  0  0  0  0  0  0  0  0  0  0
    4.1638    2.1372   -2.0136 H   0  0  0  0  0  0  0  0  0  0  0  0
    3.8726    2.8224   -3.5816 H   0  0  0  0  0  0  0  0  0  0  0  0
    5.7580    3.8491    1.1528 H   0  0  0  0  0  0  0  0  0  0  0  0
    6.7695    3.6376    3.4530 H   0  0  0  0  0  0  0  0  0  0  0  0
  1  2  2  0  0  0  0
  2  3  1  0  0  0  0
  2 23  1  0  0  0  0
  3  4  1  0  0  0  0
  3 26  1  0  0  0  0
  4  5  2  0  0  0  0
  4 27  1  0  0  0  0
  5  6  1  0  0  0  0
  6  7  1  0  0  0  0
  6 23  2  0  0  0  0
  7  8  1  0  0  0  0
  7 21  2  0  0  0  0
  8  9  1  0  0  0  0
  9 10  1  0  0  0  0
  9 14  2  0  0  0  0
 10 11  2  0  0  0  0
 10 28  1  0  0  0  0
 11 12  1  0  0  0  0
 11 29  1  0  0  0  0
 12 13  2  0  0  0  0
 12 30  1  0  0  0  0
 13 14  1  0  0  0  0
 13 31  1  0  0  0  0
 14 15  1  0  0  0  0
 15 16  1  0  0  0  0
 16 17  1  0  0  0  0
 16 32  1  0  0  0  0
 16 33  1  0  0  0  0
 17 18  2  0  0  0  0
 17 19  1  0  0  0  0
 17 20  1  0  0  0  0
 21 22  1  0  0  0  0
 21 34  1  0  0  0  0
 22 23  1  0  0  0  0
 22 35  1  0  0  0  0
M  CHG  4  19  -1  20  -1  24   1  25   1
M  END
$$$$
CHEMBL5405457
 OpenBabel05022512113D

 27 29  0  0  0  0  0  0  0  0999 V2000
   -1.6962   -1.8024    0.0150 O   0  0  0  0  0  0  0  0  0  0  0  0
   -1.1688   -0.6985   -0.0362 C   0  0  0  0  0  0  0  0  0  0  0  0
   -1.8898    0.4712   -0.0667 N   0  0  0  0  0  0  0  0  0  0  0  0
   -1.2915    1.7121   -0.1229 C   0  0  0  0  0  0  0  0  0  0  0  0
   -0.0193    1.9597   -0.1564 N   0  0  0  0  0  0  0  0  0  0  0  0
    0.7728    0.8038   -0.1194 C   0  0  0  0  0  0  0  0  0  0  0  0
    2.1764    0.6829   -0.1053 C   0  0  0  0  0  0  0  0  0  0  0  0
    3.3597    1.9643   -0.0645 S   0  0  0  0  0  0  0  0  0  0  0  0
    3.7468    2.1998   -1.7946 C   0  0  0  0  0  0  0  0  0  0  0  0
    2.7533    2.6767   -2.6605 C   0  0  0  0  0  0  0  0  0  0  0  0
    3.0403    2.9407   -4.0022 C   0  0  0  0  0  0  0  0  0  0  0  0
    4.3270    2.7347   -4.4948 C   0  0  0  0  0  0  0  0  0  0  0  0
    5.3305    2.2662   -3.6468 C   0  0  0  0  0  0  0  0  0  0  0  0
    5.0412    2.0073   -2.3031 C   0  0  0  0  0  0  0  0  0  0  0  0
    6.0456    1.5704   -1.4798 O   0  0  0  0  0  0  0  0  0  0  0  0
    2.4549   -0.6700   -0.0511 C   0  0  0  0  0  0  0  0  0  0  0  0
    1.2615   -1.3552   -0.0337 N   0  0  0  0  0  0  0  0  0  0  0  0
    0.2322   -0.4546   -0.0663 C   0  0  0  0  0  0  0  0  0  0  0  0
   -2.8936    0.3787   -0.0404 H   0  0  0  0  0  0  0  0  0  0  0  0
   -2.0215    2.5380   -0.1426 H   0  0  0  0  0  0  0  0  0  0  0  0
    1.7482    2.8619   -2.2876 H   0  0  0  0  0  0  0  0  0  0  0  0
    2.2584    3.3169   -4.6568 H   0  0  0  0  0  0  0  0  0  0  0  0
    4.5491    2.9463   -5.5377 H   0  0  0  0  0  0  0  0  0  0  0  0
    6.3280    2.1115   -4.0472 H   0  0  0  0  0  0  0  0  0  0  0  0
    6.8935    1.6601   -1.9429 H   0  0  0  0  0  0  0  0  0  0  0  0
    3.3961   -1.2008   -0.0066 H   0  0  0  0  0  0  0  0  0  0  0  0
    1.1502   -2.3605    0.0204 H   0  0  0  0  0  0  0  0  0  0  0  0
  1  2  2  0  0  0  0
  2  3  1  0  0  0  0
  2 18  1  0  0  0  0
  3  4  1  0  0  0  0
  3 19  1  0  0  0  0
  4  5  2  0  0  0  0
  4 20  1  0  0  0  0
  5  6  1  0  0  0  0
  6  7  1  0  0  0  0
  6 18  2  0  0  0  0
  7  8  1  0  0  0  0
  7 16  2  0  0  0  0
  8  9  1  0  0  0  0
  9 10  1  0  0  0  0
  9 14  2  0  0  0  0
 10 11  2  0  0  0  0
 10 21  1  0  0  0  0
 11 12  1  0  0  0  0
 11 22  1  0  0  0  0
 12 13  2  0  0  0  0
 12 23  1  0  0  0  0
 13 14  1  0  0  0  0
 13 24  1  0  0  0  0
 14 15  1  0  0  0  0
 15 25  1  0  0  0  0
 16 17  1  0  0  0  0
 16 26  1  0  0  0  0
 17 18  1  0  0  0  0
 17 27  1  0  0  0  0
M  END
$$$$
CHEMBL5422679
 OpenBabel05022512153D

 31 30  0  0  0  0  0  0  0  0999 V2000
   -1.7809   -1.7933    0.2087 O   0  0  0  0  0  0  0  0  0  0  0  0
   -1.2299   -0.7163    0.0286 C   0  0  0  0  0  0  0  0  0  0  0  0
   -1.8839    0.4847   -0.1169 N   0  0  0  0  0  0  0  0  0  0  0  0
   -1.2388    1.6589   -0.4493 C   0  0  0  0  0  0  0  0  0  0  0  0
    0.0343    1.7957   -0.7310 N   0  0  0  0  0  0  0  0  0  0  0  0
    0.7697    0.6592   -0.3582 C   0  0  0  0  0  0  0  0  0  0  0  0
    2.1589    0.5457   -0.1638 C   0  0  0  0  0  0  0  0  0  0  0  0
    3.4031    1.7602   -0.2914 S   0  0  0  0  0  0  0  0  0  0  0  0
    2.7583    3.1984    0.6374 C   0  0  0  0  0  0  0  0  0  0  0  0
    2.3796    2.9516    2.0926 C   0  0  0  0  0  0  0  0  0  0  0  0
    2.0160    4.1678    2.7422 O   0  0  0  0  0  0  0  0  0  0  0  0
    0.7061    4.6804    2.4092 C   0  0  0  0  0  0  0  0  0  0  0  0
   -0.6547    3.5537    3.0252 P   0  0  0  0  0  0  0  0  0  0  0  0
   -0.2155    3.0732    4.4050 O   0  0  0  0  0  0  0  0  0  0  0  0
   -1.9361    4.3348    2.9416 O   0  5  0  0  0  0  0  0  0  0  0  0
   -0.6352    2.3011    2.1439 O   0  5  0  0  0  0  0  0  0  0  0  0
    2.3957   -0.7935    0.0886 C   0  0  0  0  0  0  0  0  0  0  0  0
    1.1812   -1.4436    0.1500 N   0  0  0  0  0  0  0  0  0  0  0  0
    0.1824   -0.5382   -0.0726 C   0  0  0  0  0  0  0  0  0  0  0  0
   -0.0790    1.2316    3.7983 Na  0  3  0  0  0  0  0  0  0  0  0  0
    1.0733    1.9325   -2.7282 Na  0  3  0  0  0  0  0  0  0  0  0  0
   -2.8651    0.4984    0.1117 H   0  0  0  0  0  0  0  0  0  0  0  0
   -1.9288    2.5160   -0.5253 H   0  0  0  0  0  0  0  0  0  0  0  0
    1.9272    3.6330    0.0777 H   0  0  0  0  0  0  0  0  0  0  0  0
    3.5476    3.9614    0.6256 H   0  0  0  0  0  0  0  0  0  0  0  0
    3.2452    2.5648    2.6424 H   0  0  0  0  0  0  0  0  0  0  0  0
    1.6073    2.1956    2.1949 H   0  0  0  0  0  0  0  0  0  0  0  0
    0.6008    4.8414    1.3332 H   0  0  0  0  0  0  0  0  0  0  0  0
    0.5895    5.6415    2.9199 H   0  0  0  0  0  0  0  0  0  0  0  0
    3.3159   -1.3368    0.2614 H   0  0  0  0  0  0  0  0  0  0  0  0
    1.0424   -2.4334    0.3631 H   0  0  0  0  0  0  0  0  0  0  0  0
  1  2  2  0  0  0  0
  2  3  1  0  0  0  0
  2 19  1  0  0  0  0
  3  4  1  0  0  0  0
  3 22  1  0  0  0  0
  4  5  2  0  0  0  0
  4 23  1  0  0  0  0
  5  6  1  0  0  0  0
  6  7  1  0  0  0  0
  6 19  2  0  0  0  0
  7  8  1  0  0  0  0
  7 17  2  0  0  0  0
  8  9  1  0  0  0  0
  9 10  1  0  0  0  0
  9 24  1  0  0  0  0
  9 25  1  0  0  0  0
 10 11  1  0  0  0  0
 10 26  1  0  0  0  0
 10 27  1  0  0  0  0
 11 12  1  0  0  0  0
 12 13  1  0  0  0  0
 12 28  1  0  0  0  0
 12 29  1  0  0  0  0
 13 14  2  0  0  0  0
 13 15  1  0  0  0  0
 13 16  1  0  0  0  0
 17 18  1  0  0  0  0
 17 30  1  0  0  0  0
 18 19  1  0  0  0  0
 18 31  1  0  0  0  0
M  CHG  4  15  -1  16  -1  20   1  21   1
M  END
$$$$
CHEMBL5395974
 OpenBabel05022512193D

 36 36  0  0  0  0  0  0  0  0999 V2000
    7.9168    3.0887    4.5308 O   0  0  0  0  0  0  0  0  0  0  0  0
    6.8608    2.5198    4.2493 C   0  0  0  0  0  0  0  0  0  0  0  0
    6.2318    1.6926    5.1038 N   0  0  0  0  0  0  0  0  0  0  0  0
    5.0436    1.0508    4.7975 C   0  0  0  0  0  0  0  0  0  0  0  0
    4.3543    1.1456    3.6827 N   0  0  0  0  0  0  0  0  0  0  0  0
    4.9942    1.9956    2.7640 C   0  0  0  0  0  0  0  0  0  0  0  0
    4.5878    2.3754    1.4556 C   0  0  0  0  0  0  0  0  0  0  0  0
    3.1442    1.9308    0.5725 S   0  0  0  0  0  0  0  0  0  0  0  0
    2.4122    3.5540    0.2507 C   0  0  0  0  0  0  0  0  0  0  0  0
    1.5683    4.0518    1.2676 C   0  0  0  0  0  0  0  0  0  0  0  0
    0.9548    5.2907    1.1273 C   0  0  0  0  0  0  0  0  0  0  0  0
    0.1257    5.7981    2.0817 O   0  0  0  0  0  0  0  0  0  0  0  0
    1.1756    6.0633    0.0031 C   0  0  0  0  0  0  0  0  0  0  0  0
    2.0006    5.5888   -1.0064 C   0  0  0  0  0  0  0  0  0  0  0  0
    2.6113    4.3127   -0.9298 C   0  0  0  0  0  0  0  0  0  0  0  0
    3.4600    3.8764   -2.0614 C   0  0  0  0  0  0  0  0  0  0  0  0
    3.3376    4.3066   -3.3370 C   0  0  0  0  0  0  0  0  0  0  0  0
    4.3105    3.8464   -4.8171 P   0  0  0  0  0  0  0  0  0  0  0  0
    5.2803    3.1002   -3.8511 O   0  0  0  0  0  0  0  0  0  0  0  0
    3.0937    2.9262   -5.1781 O   0  5  0  0  0  0  0  0  0  0  0  0
    5.2302    3.4114   -6.2163 O   0  5  0  0  0  0  0  0  0  0  0  0
    5.5914    3.1674    0.9354 C   0  0  0  0  0  0  0  0  0  0  0  0
    6.5661    3.3431    1.9076 N   0  0  0  0  0  0  0  0  0  0  0  0
    6.1845    2.6323    3.0206 C   0  0  0  0  0  0  0  0  0  0  0  0
    2.4141    0.1526    2.8164 Na  0  3  0  0  0  0  0  0  0  0  0  0
    3.4540    1.4427   -4.0885 Na  0  3  0  0  0  0  0  0  0  0  0  0
    6.6734    1.5604    6.0061 H   0  0  0  0  0  0  0  0  0  0  0  0
    4.6609    0.4278    5.6235 H   0  0  0  0  0  0  0  0  0  0  0  0
    1.3947    3.4748    2.1679 H   0  0  0  0  0  0  0  0  0  0  0  0
    0.1114    5.2116    2.8525 H   0  0  0  0  0  0  0  0  0  0  0  0
    0.7137    7.0390   -0.1002 H   0  0  0  0  0  0  0  0  0  0  0  0
    2.1865    6.2289   -1.8634 H   0  0  0  0  0  0  0  0  0  0  0  0
    4.2623    3.1792   -1.8443 H   0  0  0  0  0  0  0  0  0  0  0  0
    2.5529    4.9935   -3.6239 H   0  0  0  0  0  0  0  0  0  0  0  0
    5.7215    3.6392   -0.0275 H   0  0  0  0  0  0  0  0  0  0  0  0
    7.4113    3.8862    1.8150 H   0  0  0  0  0  0  0  0  0  0  0  0
  1  2  2  0  0  0  0
  2  3  1  0  0  0  0
  2 24  1  0  0  0  0
  3  4  1  0  0  0  0
  3 27  1  0  0  0  0
  4  5  2  0  0  0  0
  4 28  1  0  0  0  0
  5  6  1  0  0  0  0
  6  7  1  0  0  0  0
  6 24  2  0  0  0  0
  7  8  1  0  0  0  0
  7 22  2  0  0  0  0
  8  9  1  0  0  0  0
  9 10  1  0  0  0  0
  9 15  2  0  0  0  0
 10 11  2  0  0  0  0
 10 29  1  0  0  0  0
 11 12  1  0  0  0  0
 11 13  1  0  0  0  0
 12 30  1  0  0  0  0
 13 14  2  0  0  0  0
 13 31  1  0  0  0  0
 14 15  1  0  0  0  0
 14 32  1  0  0  0  0
 15 16  1  0  0  0  0
 16 17  2  0  0  0  0
 16 33  1  0  0  0  0
 17 18  1  0  0  0  0
 17 34  1  0  0  0  0
 18 19  2  0  0  0  0
 18 20  1  0  0  0  0
 18 21  1  0  0  0  0
 22 23  1  0  0  0  0
 22 35  1  0  0  0  0
 23 24  1  0  0  0  0
 23 36  1  0  0  0  0
M  CHG  4  20  -1  21  -1  25   1  26   1
M  END
$$$$
CHEMBL5395007
 OpenBabel05022512233D

 45 45  0  0  0  0  0  0  0  0999 V2000
    3.5456   -1.1939    0.3974 C   0  0  0  0  0  0  0  0  0  0  0  0
    2.8912    0.0407   -0.2232 C   0  0  0  0  0  0  0  0  0  0  0  0
    1.3688   -0.1158   -0.2132 C   0  0  0  0  0  0  0  0  0  0  0  0
    3.2091    1.2632    0.4722 O   0  0  0  0  0  0  0  0  0  0  0  0
    4.5466    1.5862    0.5029 C   0  0  0  0  0  0  0  0  0  0  0  0
    5.4116    1.2938   -0.5422 C   0  0  0  0  0  0  0  0  0  0  0  0
    6.7768    1.4912   -0.3871 C   0  0  0  0  0  0  0  0  0  0  0  0
    7.3263    2.0126    0.7982 C   0  0  0  0  0  0  0  0  0  0  0  0
    8.7930    2.0007    0.8891 C   0  0  0  0  0  0  0  0  0  0  0  0
    9.5201    0.9702    0.4211 C   0  0  0  0  0  0  0  0  0  0  0  0
   11.3421    0.8691    0.4994 P   0  0  0  0  0  0  0  0  0  0  0  0
   11.7245    0.7619    1.9780 O   0  0  0  0  0  0  0  0  0  0  0  0
   11.6905   -0.3944   -0.2963 O   0  5  0  0  0  0  0  0  0  0  0  0
   11.8811    2.1417   -0.1531 O   0  5  0  0  0  0  0  0  0  0  0  0
    6.4438    2.4893    1.7873 C   0  0  0  0  0  0  0  0  0  0  0  0
    6.9233    3.5252    3.1816 S   0  0  0  0  0  0  0  0  0  0  0  0
    8.0940    2.5799    4.0605 C   0  0  0  0  0  0  0  0  0  0  0  0
    7.8613    1.3670    4.6794 C   0  0  0  0  0  0  0  0  0  0  0  0
    9.0602    0.9157    5.1843 N   0  0  0  0  0  0  0  0  0  0  0  0
   10.0324    1.8361    4.9255 C   0  0  0  0  0  0  0  0  0  0  0  0
   11.4383    1.7093    5.1259 C   0  0  0  0  0  0  0  0  0  0  0  0
   11.9621    0.8949    5.8790 O   0  0  0  0  0  0  0  0  0  0  0  0
   12.1218    2.7028    4.4709 N   0  0  0  0  0  0  0  0  0  0  0  0
   11.4783    3.7504    3.8251 C   0  0  0  0  0  0  0  0  0  0  0  0
   10.2038    3.9716    3.7799 N   0  0  0  0  0  0  0  0  0  0  0  0
    9.4559    2.8892    4.2694 C   0  0  0  0  0  0  0  0  0  0  0  0
    5.0532    2.2430    1.6352 C   0  0  0  0  0  0  0  0  0  0  0  0
    2.3683    1.7776   -3.5554 Na  0  3  0  0  0  0  0  0  0  0  0  0
   -2.2152   -0.1115    1.2168 Na  0  3  0  0  0  0  0  0  0  0  0  0
    3.1804   -2.1100   -0.0781 H   0  0  0  0  0  0  0  0  0  0  0  0
    3.3537   -1.2453    1.4729 H   0  0  0  0  0  0  0  0  0  0  0  0
    4.6321   -1.1802    0.2662 H   0  0  0  0  0  0  0  0  0  0  0  0
    3.1699    0.1257   -1.2795 H   0  0  0  0  0  0  0  0  0  0  0  0
    0.9452    0.0987    0.7727 H   0  0  0  0  0  0  0  0  0  0  0  0
    1.0671   -1.1225   -0.5219 H   0  0  0  0  0  0  0  0  0  0  0  0
    0.9156    0.5929   -0.9162 H   0  0  0  0  0  0  0  0  0  0  0  0
    5.0954    0.8468   -1.4732 H   0  0  0  0  0  0  0  0  0  0  0  0
    7.4425    1.1955   -1.1977 H   0  0  0  0  0  0  0  0  0  0  0  0
    9.3271    2.8136    1.3702 H   0  0  0  0  0  0  0  0  0  0  0  0
    9.1042    0.0978   -0.0563 H   0  0  0  0  0  0  0  0  0  0  0  0
    6.9792    0.7558    4.7480 H   0  0  0  0  0  0  0  0  0  0  0  0
    9.2489    0.0023    5.5732 H   0  0  0  0  0  0  0  0  0  0  0  0
   13.1062    2.5486    4.3435 H   0  0  0  0  0  0  0  0  0  0  0  0
   12.1952    4.4508    3.3699 H   0  0  0  0  0  0  0  0  0  0  0  0
    4.3758    2.5445    2.4304 H   0  0  0  0  0  0  0  0  0  0  0  0
  1  2  1  0  0  0  0
  1 30  1  0  0  0  0
  1 31  1  0  0  0  0
  1 32  1  0  0  0  0
  2  3  1  0  0  0  0
  2  4  1  0  0  0  0
  2 33  1  0  0  0  0
  3 34  1  0  0  0  0
  3 35  1  0  0  0  0
  3 36  1  0  0  0  0
  4  5  1  0  0  0  0
  5  6  1  0  0  0  0
  5 27  2  0  0  0  0
  6  7  2  0  0  0  0
  6 37  1  0  0  0  0
  7  8  1  0  0  0  0
  7 38  1  0  0  0  0
  8  9  1  0  0  0  0
  8 15  2  0  0  0  0
  9 10  2  0  0  0  0
  9 39  1  0  0  0  0
 10 11  1  0  0  0  0
 10 40  1  0  0  0  0
 11 12  2  0  0  0  0
 11 13  1  0  0  0  0
 11 14  1  0  0  0  0
 15 16  1  0  0  0  0
 15 27  1  0  0  0  0
 16 17  1  0  0  0  0
 17 18  2  0  0  0  0
 17 26  1  0  0  0  0
 18 19  1  0  0  0  0
 18 41  1  0  0  0  0
 19 20  1  0  0  0  0
 19 42  1  0  0  0  0
 20 21  1  0  0  0  0
 20 26  2  0  0  0  0
 21 22  2  0  0  0  0
 21 23  1  0  0  0  0
 23 24  1  0  0  0  0
 23 43  1  0  0  0  0
 24 25  2  0  0  0  0
 24 44  1  0  0  0  0
 25 26  1  0  0  0  0
 27 45  1  0  0  0  0
M  CHG  4  13  -1  14  -1  28   1  29   1
M  END
$$$$
CHEMBL5408135
 OpenBabel05022512363D

 46 47  0  0  0  0  0  0  0  0999 V2000
   -1.5877   -2.0367   -1.0369 O   0  0  0  0  0  0  0  0  0  0  0  0
   -1.1327   -0.9383   -0.7243 C   0  0  0  0  0  0  0  0  0  0  0  0
   -1.9485    0.1504   -0.4471 N   0  0  0  0  0  0  0  0  0  0  0  0
   -1.4429    1.3074    0.1139 C   0  0  0  0  0  0  0  0  0  0  0  0
   -0.1979    1.5405    0.4173 N   0  0  0  0  0  0  0  0  0  0  0  0
    0.6843    0.5777   -0.0923 C   0  0  0  0  0  0  0  0  0  0  0  0
    2.0947    0.5966   -0.1442 C   0  0  0  0  0  0  0  0  0  0  0  0
    3.2572    1.8200    0.3069 S   0  0  0  0  0  0  0  0  0  0  0  0
    2.4381    3.3977    0.1242 C   0  0  0  0  0  0  0  0  0  0  0  0
    1.6605    3.8287    1.2141 C   0  0  0  0  0  0  0  0  0  0  0  0
    1.0307    5.0696    1.2187 C   0  0  0  0  0  0  0  0  0  0  0  0
    1.2785    5.9693    0.1889 C   0  0  0  0  0  0  0  0  0  0  0  0
    0.8021    7.2635    0.1655 O   0  0  0  0  0  0  0  0  0  0  0  0
    0.5304    7.9311    1.3426 C   0  0  0  0  0  0  0  0  0  0  0  0
    1.2976    7.8517    2.5104 C   0  0  0  0  0  0  0  0  0  0  0  0
    2.4019    7.0925    2.5654 F   0  0  0  0  0  0  0  0  0  0  0  0
    0.9067    8.5288    3.6634 C   0  0  0  0  0  0  0  0  0  0  0  0
    1.6003    8.3632    4.7986 F   0  0  0  0  0  0  0  0  0  0  0  0
   -0.2131    9.3469    3.6493 C   0  0  0  0  0  0  0  0  0  0  0  0
   -0.5930    9.9824    4.7666 F   0  0  0  0  0  0  0  0  0  0  0  0
   -0.9441    9.4910    2.4805 C   0  0  0  0  0  0  0  0  0  0  0  0
   -2.0202   10.2891    2.4595 F   0  0  0  0  0  0  0  0  0  0  0  0
   -0.5753    8.7882    1.3325 C   0  0  0  0  0  0  0  0  0  0  0  0
   -1.3113    8.9194    0.2223 F   0  0  0  0  0  0  0  0  0  0  0  0
    2.0347    5.5508   -0.9162 C   0  0  0  0  0  0  0  0  0  0  0  0
    2.6206    4.2654   -0.9707 C   0  0  0  0  0  0  0  0  0  0  0  0
    3.3958    3.9207   -2.1806 C   0  0  0  0  0  0  0  0  0  0  0  0
    2.7962    3.4102   -3.2703 C   0  0  0  0  0  0  0  0  0  0  0  0
    3.5694    3.0640   -4.8924 P   0  0  0  0  0  0  0  0  0  0  0  0
    4.1014    1.7174   -4.3009 O   0  0  0  0  0  0  0  0  0  0  0  0
    2.1441    2.7812   -5.4690 O   0  5  0  0  0  0  0  0  0  0  0  0
    4.3004    2.7366   -6.4258 O   0  5  0  0  0  0  0  0  0  0  0  0
    2.4662   -0.6746   -0.5415 C   0  0  0  0  0  0  0  0  0  0  0  0
    1.3324   -1.4023   -0.8304 N   0  0  0  0  0  0  0  0  0  0  0  0
    0.2401   -0.6323   -0.5551 C   0  0  0  0  0  0  0  0  0  0  0  0
    2.9378    0.9325   -5.7775 Na  0  3  0  0  0  0  0  0  0  0  0  0
    1.0343    0.7822    2.5366 Na  0  3  0  0  0  0  0  0  0  0  0  0
   -2.9327    0.0269   -0.6067 H   0  0  0  0  0  0  0  0  0  0  0  0
   -2.2240    2.0479    0.3523 H   0  0  0  0  0  0  0  0  0  0  0  0
    1.5439    3.2093    2.0914 H   0  0  0  0  0  0  0  0  0  0  0  0
    0.4010    5.3298    2.0622 H   0  0  0  0  0  0  0  0  0  0  0  0
    2.1847    6.2371   -1.7489 H   0  0  0  0  0  0  0  0  0  0  0  0
    4.4598    4.1312   -2.1891 H   0  0  0  0  0  0  0  0  0  0  0  0
    1.7306    3.2147   -3.2457 H   0  0  0  0  0  0  0  0  0  0  0  0
    3.4492   -1.1100   -0.6929 H   0  0  0  0  0  0  0  0  0  0  0  0
    1.3140   -2.3495   -1.2031 H   0  0  0  0  0  0  0  0  0  0  0  0
  1  2  2  0  0  0  0
  2  3  1  0  0  0  0
  2 35  1  0  0  0  0
  3  4  1  0  0  0  0
  3 38  1  0  0  0  0
  4  5  2  0  0  0  0
  4 39  1  0  0  0  0
  5  6  1  0  0  0  0
  6  7  1  0  0  0  0
  6 35  2  0  0  0  0
  7  8  1  0  0  0  0
  7 33  2  0  0  0  0
  8  9  1  0  0  0  0
  9 10  1  0  0  0  0
  9 26  2  0  0  0  0
 10 11  2  0  0  0  0
 10 40  1  0  0  0  0
 11 12  1  0  0  0  0
 11 41  1  0  0  0  0
 12 13  1  0  0  0  0
 12 25  2  0  0  0  0
 13 14  1  0  0  0  0
 14 15  1  0  0  0  0
 14 23  2  0  0  0  0
 15 16  1  0  0  0  0
 15 17  2  0  0  0  0
 17 18  1  0  0  0  0
 17 19  1  0  0  0  0
 19 20  1  0  0  0  0
 19 21  2  0  0  0  0
 21 22  1  0  0  0  0
 21 23  1  0  0  0  0
 23 24  1  0  0  0  0
 25 26  1  0  0  0  0
 25 42  1  0  0  0  0
 26 27  1  0  0  0  0
 27 28  2  0  0  0  0
 27 43  1  0  0  0  0
 28 29  1  0  0  0  0
 28 44  1  0  0  0  0
 29 30  2  0  0  0  0
 29 31  1  0  0  0  0
 29 32  1  0  0  0  0
 33 34  1  0  0  0  0
 33 45  1  0  0  0  0
 34 35  1  0  0  0  0
 34 46  1  0  0  0  0
M  CHG  4  31  -1  32  -1  36   1  37   1
M  END
$$$$
CHEMBL5400769
 OpenBabel05022512413D

 64 67  0  0  1  0  0  0  0  0999 V2000
    7.0732    3.1993    2.7577 C   0  0  0  0  0  0  0  0  0  0  0  0
    5.9988    2.1062    2.7835 C   0  0  0  0  0  0  0  0  0  0  0  0
    4.6822    2.6580    2.2321 C   0  0  0  0  0  0  0  0  0  0  0  0
    6.4162    0.7458    2.3770 O   0  0  0  0  0  0  0  0  0  0  0  0
    6.7552    0.2190    1.1496 C   0  0  0  0  0  0  0  0  0  0  0  0
    6.7117    0.8492    0.0983 O   0  0  0  0  0  0  0  0  0  0  0  0
    7.3552   -1.2616    1.3089 C   0  0  2  0  0  0  0  0  0  0  0  0
    7.7346   -2.1073    0.0946 C   0  0  0  0  0  0  0  0  0  0  0  0
    6.4442   -2.1460    2.0616 N   0  0  0  0  0  0  0  0  0  0  0  0
    7.0375   -3.3451    3.2358 P   0  0  3  0  0  0  0  0  0  0  0  0
    8.1201   -2.3213    3.6001 O   0  0  0  0  0  0  0  0  0  0  0  0
    5.4285   -3.0864    4.2752 C   0  0  0  0  0  0  0  0  0  0  0  0
    4.7853   -4.3489    4.0921 O   0  0  0  0  0  0  0  0  0  0  0  0
    3.4291   -4.3211    3.9016 C   0  0  0  0  0  0  0  0  0  0  0  0
    2.7063   -4.9006    4.9584 C   0  0  0  0  0  0  0  0  0  0  0  0
    1.3638   -5.2283    4.7983 C   0  0  0  0  0  0  0  0  0  0  0  0
    0.7353   -4.9606    3.5881 C   0  0  0  0  0  0  0  0  0  0  0  0
    1.4492   -4.3779    2.5318 C   0  0  0  0  0  0  0  0  0  0  0  0
    2.8082   -4.0507    2.6564 C   0  0  0  0  0  0  0  0  0  0  0  0
    3.7455   -3.6487    1.1788 S   0  0  0  0  0  0  0  0  0  0  0  0
    2.9105   -2.4771    0.1708 C   0  0  0  0  0  0  0  0  0  0  0  0
    1.7238   -1.7971    0.3756 C   0  0  0  0  0  0  0  0  0  0  0  0
    1.5217   -0.9200   -0.6760 N   0  0  0  0  0  0  0  0  0  0  0  0
    2.5790   -1.0093   -1.5354 C   0  0  0  0  0  0  0  0  0  0  0  0
    2.8518   -0.2310   -2.7099 C   0  0  0  0  0  0  0  0  0  0  0  0
    2.1459    0.6681   -3.1350 O   0  0  0  0  0  0  0  0  0  0  0  0
    4.0275   -0.6136   -3.2996 N   0  0  0  0  0  0  0  0  0  0  0  0
    4.8103   -1.6345   -2.8132 C   0  0  0  0  0  0  0  0  0  0  0  0
    4.5850   -2.3508   -1.7525 N   0  0  0  0  0  0  0  0  0  0  0  0
    3.4129   -1.9843   -1.0638 C   0  0  0  0  0  0  0  0  0  0  0  0
    7.6142   -4.5105    4.3769 O   0  0  0  0  0  0  0  0  0  0  0  0
    8.4382   -4.2088    5.4488 C   0  0  0  0  0  0  0  0  0  0  0  0
    8.4874   -2.9747    6.1081 C   0  0  0  0  0  0  0  0  0  0  0  0
    9.4805   -2.6946    7.0483 C   0  0  0  0  0  0  0  0  0  0  0  0
   10.3947   -3.6855    7.3964 C   0  0  0  0  0  0  0  0  0  0  0  0
   10.3089   -4.9386    6.8079 C   0  0  0  0  0  0  0  0  0  0  0  0
    9.3297   -5.2041    5.8350 C   0  0  0  0  0  0  0  0  0  0  0  0
    6.6838    4.1182    3.2266 H   0  0  0  0  0  0  0  0  0  0  0  0
    7.3831    3.4638    1.7437 H   0  0  0  0  0  0  0  0  0  0  0  0
    7.9585    2.9061    3.3279 H   0  0  0  0  0  0  0  0  0  0  0  0
    5.7971    1.9565    3.8523 H   0  0  0  0  0  0  0  0  0  0  0  0
    4.7481    2.9337    1.1766 H   0  0  0  0  0  0  0  0  0  0  0  0
    4.4100    3.5745    2.7827 H   0  0  0  0  0  0  0  0  0  0  0  0
    3.8587    1.9528    2.3637 H   0  0  0  0  0  0  0  0  0  0  0  0
    8.2961   -1.0613    1.8320 H   0  0  0  0  0  0  0  0  0  0  0  0
    6.8611   -2.4785   -0.4496 H   0  0  0  0  0  0  0  0  0  0  0  0
    8.2734   -3.0064    0.4399 H   0  0  0  0  0  0  0  0  0  0  0  0
    8.3883   -1.5915   -0.6088 H   0  0  0  0  0  0  0  0  0  0  0  0
    5.6889   -2.4975    1.4775 H   0  0  0  0  0  0  0  0  0  0  0  0
    4.8490   -2.2305    3.9095 H   0  0  0  0  0  0  0  0  0  0  0  0
    5.6985   -2.9306    5.3233 H   0  0  0  0  0  0  0  0  0  0  0  0
    3.2148   -5.1732    5.8814 H   0  0  0  0  0  0  0  0  0  0  0  0
    0.8280   -5.7408    5.5947 H   0  0  0  0  0  0  0  0  0  0  0  0
   -0.3000   -5.2586    3.4400 H   0  0  0  0  0  0  0  0  0  0  0  0
    0.9424   -4.2649    1.5776 H   0  0  0  0  0  0  0  0  0  0  0  0
    0.9987   -1.8273    1.1750 H   0  0  0  0  0  0  0  0  0  0  0  0
    0.7446   -0.2820   -0.7883 H   0  0  0  0  0  0  0  0  0  0  0  0
    4.2932   -0.0961   -4.1271 H   0  0  0  0  0  0  0  0  0  0  0  0
    5.7069   -1.8195   -3.4333 H   0  0  0  0  0  0  0  0  0  0  0  0
    7.8141   -2.1618    5.8463 H   0  0  0  0  0  0  0  0  0  0  0  0
    9.5560   -1.6947    7.4705 H   0  0  0  0  0  0  0  0  0  0  0  0
   11.1867   -3.4545    8.1117 H   0  0  0  0  0  0  0  0  0  0  0  0
   11.0248   -5.7053    7.0754 H   0  0  0  0  0  0  0  0  0  0  0  0
    9.3044   -6.1864    5.3515 H   0  0  0  0  0  0  0  0  0  0  0  0
  1  2  1  0  0  0  0
  1 38  1  0  0  0  0
  1 39  1  0  0  0  0
  1 40  1  0  0  0  0
  2  3  1  0  0  0  0
  2  4  1  0  0  0  0
  2 41  1  0  0  0  0
  3 42  1  0  0  0  0
  3 43  1  0  0  0  0
  3 44  1  0  0  0  0
  4  5  1  0  0  0  0
  5  6  2  0  0  0  0
  7  9  1  0  0  0  0
  7  8  1  0  0  0  0
  7  5  1  0  0  0  0
  7 45  1  1  0  0  0
  8 46  1  0  0  0  0
  8 47  1  0  0  0  0
  8 48  1  0  0  0  0
  9 10  1  0  0  0  0
  9 49  1  0  0  0  0
 10 11  2  0  0  0  0
 10 12  1  0  0  0  0
 10 31  1  0  0  0  0
 12 13  1  0  0  0  0
 12 50  1  0  0  0  0
 12 51  1  0  0  0  0
 13 14  1  0  0  0  0
 14 15  1  0  0  0  0
 14 19  2  0  0  0  0
 15 16  2  0  0  0  0
 15 52  1  0  0  0  0
 16 17  1  0  0  0  0
 16 53  1  0  0  0  0
 17 18  2  0  0  0  0
 17 54  1  0  0  0  0
 18 19  1  0  0  0  0
 18 55  1  0  0  0  0
 19 20  1  0  0  0  0
 20 21  1  0  0  0  0
 21 22  2  0  0  0  0
 21 30  1  0  0  0  0
 22 23  1  0  0  0  0
 22 56  1  0  0  0  0
 23 24  1  0  0  0  0
 23 57  1  0  0  0  0
 24 25  1  0  0  0  0
 24 30  2  0  0  0  0
 25 26  2  0  0  0  0
 25 27  1  0  0  0  0
 27 28  1  0  0  0  0
 27 58  1  0  0  0  0
 28 29  2  0  0  0  0
 28 59  1  0  0  0  0
 29 30  1  0  0  0  0
 31 32  1  0  0  0  0
 32 33  1  0  0  0  0
 32 37  2  0  0  0  0
 33 34  2  0  0  0  0
 33 60  1  0  0  0  0
 34 35  1  0  0  0  0
 34 61  1  0  0  0  0
 35 36  2  0  0  0  0
 35 62  1  0  0  0  0
 36 37  1  0  0  0  0
 36 63  1  0  0  0  0
 37 64  1  0  0  0  0
M  END
$$$$
CHEMBL5483062
 OpenBabel05022512453D

 46 47  0  0  0  0  0  0  0  0999 V2000
    0.2922   -3.1597   -1.9363 O   0  0  0  0  0  0  0  0  0  0  0  0
    1.1863   -2.6465   -1.2791 C   0  0  0  0  0  0  0  0  0  0  0  0
    2.2233   -3.3506   -0.7151 N   0  0  0  0  0  0  0  0  0  0  0  0
    3.1812   -2.7665    0.0834 C   0  0  0  0  0  0  0  0  0  0  0  0
    3.2604   -1.5037    0.3993 N   0  0  0  0  0  0  0  0  0  0  0  0
    2.3120   -0.7119   -0.2661 C   0  0  0  0  0  0  0  0  0  0  0  0
    2.2405    0.6953   -0.3428 C   0  0  0  0  0  0  0  0  0  0  0  0
    3.4439    1.8033    0.2799 S   0  0  0  0  0  0  0  0  0  0  0  0
    2.6917    3.4290    0.1987 C   0  0  0  0  0  0  0  0  0  0  0  0
    1.9041    3.8276    1.2862 C   0  0  0  0  0  0  0  0  0  0  0  0
    1.2336    5.0567    1.2754 C   0  0  0  0  0  0  0  0  0  0  0  0
    0.3615    5.4595    2.2645 O   0  0  0  0  0  0  0  0  0  0  0  0
   -0.4817    4.5290    2.8304 C   0  0  0  0  0  0  0  0  0  0  0  0
   -0.7500    4.6699    4.1934 C   0  0  0  0  0  0  0  0  0  0  0  0
   -0.2110    5.6828    4.8846 F   0  0  0  0  0  0  0  0  0  0  0  0
   -1.5330    3.7341    4.8630 C   0  0  0  0  0  0  0  0  0  0  0  0
   -1.7326    3.8477    6.1833 F   0  0  0  0  0  0  0  0  0  0  0  0
   -2.0579    2.6467    4.1757 C   0  0  0  0  0  0  0  0  0  0  0  0
   -2.7263    1.6918    4.8360 F   0  0  0  0  0  0  0  0  0  0  0  0
   -1.8349    2.5199    2.8159 C   0  0  0  0  0  0  0  0  0  0  0  0
   -2.2748    1.4356    2.1634 F   0  0  0  0  0  0  0  0  0  0  0  0
   -1.0807    3.4713    2.1385 C   0  0  0  0  0  0  0  0  0  0  0  0
   -0.8853    3.3030    0.8225 F   0  0  0  0  0  0  0  0  0  0  0  0
    1.4586    5.9545    0.2438 C   0  0  0  0  0  0  0  0  0  0  0  0
    2.2795    5.5947   -0.8267 C   0  0  0  0  0  0  0  0  0  0  0  0
    2.8811    4.3193   -0.8756 C   0  0  0  0  0  0  0  0  0  0  0  0
    3.5588    3.9569   -2.1285 C   0  0  0  0  0  0  0  0  0  0  0  0
    2.7967    3.5114   -3.1342 C   0  0  0  0  0  0  0  0  0  0  0  0
    3.3404    3.1126   -4.8137 P   0  0  0  0  0  0  0  0  0  0  0  0
    2.8549    1.6744   -5.0254 O   0  0  0  0  0  0  0  0  0  0  0  0
    2.6190    4.0568   -5.7494 O   0  5  0  0  0  0  0  0  0  0  0  0
    4.8576    3.1508   -4.8449 O   0  5  0  0  0  0  0  0  0  0  0  0
    1.0661    0.9712   -1.0167 C   0  0  0  0  0  0  0  0  0  0  0  0
    0.4953   -0.2155   -1.4234 N   0  0  0  0  0  0  0  0  0  0  0  0
    1.2932   -1.2490   -1.0042 C   0  0  0  0  0  0  0  0  0  0  0  0
    2.5415    0.1251    2.5347 Na  0  3  0  0  0  0  0  0  0  0  0  0
    2.7360    0.1339   -4.1069 Na  0  3  0  0  0  0  0  0  0  0  0  0
    2.2296   -4.3452   -0.8901 H   0  0  0  0  0  0  0  0  0  0  0  0
    3.9094   -3.4906    0.4725 H   0  0  0  0  0  0  0  0  0  0  0  0
    1.7805    3.1679    2.1419 H   0  0  0  0  0  0  0  0  0  0  0  0
    0.9847    6.9335    0.2333 H   0  0  0  0  0  0  0  0  0  0  0  0
    2.4198    6.2812   -1.6620 H   0  0  0  0  0  0  0  0  0  0  0  0
    4.6183    4.1380   -2.2626 H   0  0  0  0  0  0  0  0  0  0  0  0
    1.7305    3.3991   -3.0329 H   0  0  0  0  0  0  0  0  0  0  0  0
    0.5981    1.9094   -1.2952 H   0  0  0  0  0  0  0  0  0  0  0  0
   -0.3539   -0.3155   -1.9709 H   0  0  0  0  0  0  0  0  0  0  0  0
  1  2  2  0  0  0  0
  2  3  1  0  0  0  0
  2 35  1  0  0  0  0
  3  4  1  0  0  0  0
  3 38  1  0  0  0  0
  4  5  2  0  0  0  0
  4 39  1  0  0  0  0
  5  6  1  0  0  0  0
  6  7  1  0  0  0  0
  6 35  2  0  0  0  0
  7  8  1  0  0  0  0
  7 33  2  0  0  0  0
  8  9  1  0  0  0  0
  9 10  1  0  0  0  0
  9 26  2  0  0  0  0
 10 11  2  0  0  0  0
 10 40  1  0  0  0  0
 11 12  1  0  0  0  0
 11 24  1  0  0  0  0
 12 13  1  0  0  0  0
 13 14  1  0  0  0  0
 13 22  2  0  0  0  0
 14 15  1  0  0  0  0
 14 16  2  0  0  0  0
 16 17  1  0  0  0  0
 16 18  1  0  0  0  0
 18 19  1  0  0  0  0
 18 20  2  0  0  0  0
 20 21  1  0  0  0  0
 20 22  1  0  0  0  0
 22 23  1  0  0  0  0
 24 25  2  0  0  0  0
 24 41  1  0  0  0  0
 25 26  1  0  0  0  0
 25 42  1  0  0  0  0
 26 27  1  0  0  0  0
 27 28  2  0  0  0  0
 27 43  1  0  0  0  0
 28 29  1  0  0  0  0
 28 44  1  0  0  0  0
 29 30  2  0  0  0  0
 29 31  1  0  0  0  0
 29 32  1  0  0  0  0
 33 34  1  0  0  0  0
 33 45  1  0  0  0  0
 34 35  1  0  0  0  0
 34 46  1  0  0  0  0
M  CHG  4  31  -1  32  -1  36   1  37   1
M  END
$$$$
CHEMBL5441032
 OpenBabel05022512493D

 49 50  0  0  0  0  0  0  0  0999 V2000
   -0.0387   -3.2766   -0.8467 O   0  0  0  0  0  0  0  0  0  0  0  0
    0.7828   -2.6435   -0.1983 C   0  0  0  0  0  0  0  0  0  0  0  0
    1.4915   -3.1846    0.8478 N   0  0  0  0  0  0  0  0  0  0  0  0
    2.2985   -2.4286    1.6613 C   0  0  0  0  0  0  0  0  0  0  0  0
    2.5457   -1.1609    1.5700 N   0  0  0  0  0  0  0  0  0  0  0  0
    1.9907   -0.5860    0.3983 C   0  0  0  0  0  0  0  0  0  0  0  0
    2.1961    0.7007   -0.1436 C   0  0  0  0  0  0  0  0  0  0  0  0
    3.3585    1.8995    0.3597 S   0  0  0  0  0  0  0  0  0  0  0  0
    2.5276    3.4730    0.1330 C   0  0  0  0  0  0  0  0  0  0  0  0
    1.7617    3.9031    1.2486 C   0  0  0  0  0  0  0  0  0  0  0  0
    1.1685    5.1562    1.2816 C   0  0  0  0  0  0  0  0  0  0  0  0
    1.3609    6.0319    0.2220 C   0  0  0  0  0  0  0  0  0  0  0  0
    2.1275    5.6608   -0.9005 C   0  0  0  0  0  0  0  0  0  0  0  0
    2.3996    6.5417   -1.9318 O   0  0  0  0  0  0  0  0  0  0  0  0
    1.4897    7.6335   -2.0760 C   0  0  0  0  0  0  0  0  0  0  0  0
    1.8710    8.5408   -3.2115 C   0  0  0  0  0  0  0  0  0  0  0  0
    1.0526    8.6576   -4.3383 C   0  0  0  0  0  0  0  0  0  0  0  0
   -0.0654    7.9229   -4.4252 F   0  0  0  0  0  0  0  0  0  0  0  0
    1.3354    9.5825   -5.3413 C   0  0  0  0  0  0  0  0  0  0  0  0
    0.4998    9.7152   -6.3824 F   0  0  0  0  0  0  0  0  0  0  0  0
    2.4463   10.4060   -5.2336 C   0  0  0  0  0  0  0  0  0  0  0  0
    2.6901   11.3304   -6.1726 F   0  0  0  0  0  0  0  0  0  0  0  0
    3.2742   10.3040   -4.1251 C   0  0  0  0  0  0  0  0  0  0  0  0
    4.3172   11.1372   -3.9900 F   0  0  0  0  0  0  0  0  0  0  0  0
    2.9878    9.3780   -3.1219 C   0  0  0  0  0  0  0  0  0  0  0  0
    3.7516    9.3509   -2.0212 F   0  0  0  0  0  0  0  0  0  0  0  0
    2.7120    4.3640   -0.9600 C   0  0  0  0  0  0  0  0  0  0  0  0
    3.4708    3.9668   -2.1675 C   0  0  0  0  0  0  0  0  0  0  0  0
    2.8785    3.4675   -3.2711 C   0  0  0  0  0  0  0  0  0  0  0  0
    3.6988    3.0875   -4.8622 P   0  0  0  0  0  0  0  0  0  0  0  0
    4.7936    2.2682   -4.1074 O   0  0  0  0  0  0  0  0  0  0  0  0
    2.5402    2.0971   -5.2041 O   0  5  0  0  0  0  0  0  0  0  0  0
    4.4743    2.7283   -6.3664 O   0  5  0  0  0  0  0  0  0  0  0  0
    1.3404    0.7813   -1.2143 C   0  0  0  0  0  0  0  0  0  0  0  0
    0.7021   -0.4286   -1.3943 N   0  0  0  0  0  0  0  0  0  0  0  0
    1.1160   -1.2729   -0.3969 C   0  0  0  0  0  0  0  0  0  0  0  0
    1.6684    0.6289    2.8038 Na  0  3  0  0  0  0  0  0  0  0  0  0
    4.2223    0.8601   -5.5328 Na  0  3  0  0  0  0  0  0  0  0  0  0
    1.3335   -4.1637    1.0116 H   0  0  0  0  0  0  0  0  0  0  0  0
    2.7322   -3.0200    2.4957 H   0  0  0  0  0  0  0  0  0  0  0  0
    1.6451    3.2727    2.1203 H   0  0  0  0  0  0  0  0  0  0  0  0
    0.5851    5.4753    2.1415 H   0  0  0  0  0  0  0  0  0  0  0  0
    0.9198    7.0134    0.3156 H   0  0  0  0  0  0  0  0  0  0  0  0
    1.4778    8.2675   -1.1795 H   0  0  0  0  0  0  0  0  0  0  0  0
    0.4786    7.2360   -2.2321 H   0  0  0  0  0  0  0  0  0  0  0  0
    4.5446    4.1310   -2.1668 H   0  0  0  0  0  0  0  0  0  0  0  0
    1.8055    3.3361   -3.3021 H   0  0  0  0  0  0  0  0  0  0  0  0
    1.1816    1.5700   -1.9548 H   0  0  0  0  0  0  0  0  0  0  0  0
    0.0939   -0.6653   -2.1665 H   0  0  0  0  0  0  0  0  0  0  0  0
  1  2  2  0  0  0  0
  2  3  1  0  0  0  0
  2 36  1  0  0  0  0
  3  4  1  0  0  0  0
  3 39  1  0  0  0  0
  4  5  2  0  0  0  0
  4 40  1  0  0  0  0
  5  6  1  0  0  0  0
  6  7  1  0  0  0  0
  6 36  2  0  0  0  0
  7  8  1  0  0  0  0
  7 34  2  0  0  0  0
  8  9  1  0  0  0  0
  9 10  1  0  0  0  0
  9 27  2  0  0  0  0
 10 11  2  0  0  0  0
 10 41  1  0  0  0  0
 11 12  1  0  0  0  0
 11 42  1  0  0  0  0
 12 13  2  0  0  0  0
 12 43  1  0  0  0  0
 13 14  1  0  0  0  0
 13 27  1  0  0  0  0
 14 15  1  0  0  0  0
 15 16  1  0  0  0  0
 15 44  1  0  0  0  0
 15 45  1  0  0  0  0
 16 17  1  0  0  0  0
 16 25  2  0  0  0  0
 17 18  1  0  0  0  0
 17 19  2  0  0  0  0
 19 20  1  0  0  0  0
 19 21  1  0  0  0  0
 21 22  1  0  0  0  0
 21 23  2  0  0  0  0
 23 24  1  0  0  0  0
 23 25  1  0  0  0  0
 25 26  1  0  0  0  0
 27 28  1  0  0  0  0
 28 29  2  0  0  0  0
 28 46  1  0  0  0  0
 29 30  1  0  0  0  0
 29 47  1  0  0  0  0
 30 31  2  0  0  0  0
 30 32  1  0  0  0  0
 30 33  1  0  0  0  0
 34 35  1  0  0  0  0
 34 48  1  0  0  0  0
 35 36  1  0  0  0  0
 35 49  1  0  0  0  0
M  CHG  4  32  -1  33  -1  37   1  38   1
M  END
$$$$
CHEMBL5409546
 OpenBabel05022512543D

 39 39  0  0  0  0  0  0  0  0999 V2000
    1.5590   -0.8035   -0.9772 C   0  0  0  0  0  0  0  0  0  0  0  0
    2.3246   -0.1618    0.0323 O   0  0  0  0  0  0  0  0  0  0  0  0
    3.0866   -0.8997    0.8742 C   0  0  0  0  0  0  0  0  0  0  0  0
    2.7724   -2.2263    1.1856 C   0  0  0  0  0  0  0  0  0  0  0  0
    3.6283   -2.9844    1.9763 C   0  0  0  0  0  0  0  0  0  0  0  0
    4.8374   -2.4344    2.3991 C   0  0  0  0  0  0  0  0  0  0  0  0
    5.1631   -1.1004    2.0898 C   0  0  0  0  0  0  0  0  0  0  0  0
    6.8170   -0.5372    2.5099 S   0  0  0  0  0  0  0  0  0  0  0  0
    7.7562   -1.0151    1.0978 C   0  0  0  0  0  0  0  0  0  0  0  0
    7.3012   -1.6161   -0.0650 C   0  0  0  0  0  0  0  0  0  0  0  0
    8.3638   -1.7728   -0.9258 N   0  0  0  0  0  0  0  0  0  0  0  0
    9.4929   -1.2986   -0.3223 C   0  0  0  0  0  0  0  0  0  0  0  0
   10.8174   -1.2421   -0.8387 C   0  0  0  0  0  0  0  0  0  0  0  0
   11.1707   -1.6501   -1.9341 O   0  0  0  0  0  0  0  0  0  0  0  0
   11.6878   -0.6743    0.0631 N   0  0  0  0  0  0  0  0  0  0  0  0
   11.2872   -0.2361    1.3096 C   0  0  0  0  0  0  0  0  0  0  0  0
   10.0894   -0.2842    1.8051 N   0  0  0  0  0  0  0  0  0  0  0  0
    9.1489   -0.8383    0.9217 C   0  0  0  0  0  0  0  0  0  0  0  0
    4.2312   -0.2849    1.4173 C   0  0  0  0  0  0  0  0  0  0  0  0
    4.5615    1.0468    1.2617 O   0  0  0  0  0  0  0  0  0  0  0  0
    3.5097    2.0490    1.3702 C   0  0  0  0  0  0  0  0  0  0  0  0
    2.9415    2.4893   -0.3127 P   0  0  0  0  0  0  0  0  0  0  0  0
    1.4669    2.3438    0.1967 O   0  0  0  0  0  0  0  0  0  0  0  0
    3.3130    3.9614    0.0108 O   0  5  0  0  0  0  0  0  0  0  0  0
    2.4043    2.9057   -1.9036 O   0  5  0  0  0  0  0  0  0  0  0  0
    1.1125    3.9897   -0.9976 Na  0  3  0  0  0  0  0  0  0  0  0  0
    3.4063    2.4635    4.0159 Na  0  3  0  0  0  0  0  0  0  0  0  0
    1.1900   -0.0317   -1.6612 H   0  0  0  0  0  0  0  0  0  0  0  0
    0.6884   -1.3054   -0.5463 H   0  0  0  0  0  0  0  0  0  0  0  0
    2.1674   -1.5025   -1.5609 H   0  0  0  0  0  0  0  0  0  0  0  0
    1.8594   -2.6858    0.8167 H   0  0  0  0  0  0  0  0  0  0  0  0
    3.3761   -4.0130    2.2187 H   0  0  0  0  0  0  0  0  0  0  0  0
    5.5354   -3.0612    2.9454 H   0  0  0  0  0  0  0  0  0  0  0  0
    6.3133   -1.9262   -0.3786 H   0  0  0  0  0  0  0  0  0  0  0  0
    8.3220   -2.1579   -1.8630 H   0  0  0  0  0  0  0  0  0  0  0  0
   12.6403   -0.5937   -0.2368 H   0  0  0  0  0  0  0  0  0  0  0  0
   12.1219    0.1841    1.9009 H   0  0  0  0  0  0  0  0  0  0  0  0
    3.9782    2.9027    1.8693 H   0  0  0  0  0  0  0  0  0  0  0  0
    2.7045    1.6749    2.0125 H   0  0  0  0  0  0  0  0  0  0  0  0
  1  2  1  0  0  0  0
  1 28  1  0  0  0  0
  1 29  1  0  0  0  0
  1 30  1  0  0  0  0
  2  3  1  0  0  0  0
  3  4  1  0  0  0  0
  3 19  2  0  0  0  0
  4  5  2  0  0  0  0
  4 31  1  0  0  0  0
  5  6  1  0  0  0  0
  5 32  1  0  0  0  0
  6  7  2  0  0  0  0
  6 33  1  0  0  0  0
  7  8  1  0  0  0  0
  7 19  1  0  0  0  0
  8  9  1  0  0  0  0
  9 10  2  0  0  0  0
  9 18  1  0  0  0  0
 10 11  1  0  0  0  0
 10 34  1  0  0  0  0
 11 12  1  0  0  0  0
 11 35  1  0  0  0  0
 12 13  1  0  0  0  0
 12 18  2  0  0  0  0
 13 14  2  0  0  0  0
 13 15  1  0  0  0  0
 15 16  1  0  0  0  0
 15 36  1  0  0  0  0
 16 17  2  0  0  0  0
 16 37  1  0  0  0  0
 17 18  1  0  0  0  0
 19 20  1  0  0  0  0
 20 21  1  0  0  0  0
 21 22  1  0  0  0  0
 21 38  1  0  0  0  0
 21 39  1  0  0  0  0
 22 23  2  0  0  0  0
 22 24  1  0  0  0  0
 22 25  1  0  0  0  0
M  CHG  4  24  -1  25  -1  26   1  27   1
M  END
$$$$
CHEMBL5399819
 OpenBabel05022512583D

 84 88  0  0  1  0  0  0  0  0999 V2000
    4.3740   -2.4520   -1.4114 C   0  0  0  0  0  0  0  0  0  0  0  0
    4.4332   -1.5425   -0.1500 C   0  0  0  0  0  0  0  0  0  0  0  0
    4.6332   -2.5066    1.0529 C   0  0  0  0  0  0  0  0  0  0  0  0
    5.1355   -0.1406   -0.2378 O   0  0  0  0  0  0  0  0  0  0  0  0
    6.4538    0.1892    0.0045 C   0  0  0  0  0  0  0  0  0  0  0  0
    7.2350   -0.7273    0.2979 O   0  0  0  0  0  0  0  0  0  0  0  0
    7.0727    1.7896   -0.0595 C   0  0  2  0  0  0  0  0  0  0  0  0
    7.8503    2.1030    1.2622 C   0  0  0  0  0  0  0  0  0  0  0  0
    7.1246    2.4287    2.5564 C   0  0  0  0  0  0  0  0  0  0  0  0
    5.7571    2.2179    2.7423 C   0  0  0  0  0  0  0  0  0  0  0  0
    5.1715    2.4020    4.0001 C   0  0  0  0  0  0  0  0  0  0  0  0
    5.9395    2.8058    5.0901 C   0  0  0  0  0  0  0  0  0  0  0  0
    7.2946    3.0643    4.9181 C   0  0  0  0  0  0  0  0  0  0  0  0
    7.8808    2.8806    3.6602 C   0  0  0  0  0  0  0  0  0  0  0  0
    6.3007    3.0290   -0.5583 N   0  0  0  0  0  0  0  0  0  0  0  0
    6.8941    4.6734   -0.8937 P   0  0  3  0  0  0  0  0  0  0  0  0
    8.3662    4.2284   -0.9358 O   0  0  0  0  0  0  0  0  0  0  0  0
    6.2893    4.2206   -2.9787 C   0  0  0  0  0  0  0  0  0  0  0  0
    5.5529    2.8986   -3.1448 O   0  0  0  0  0  0  0  0  0  0  0  0
    4.1657    2.9271   -2.9514 C   0  0  0  0  0  0  0  0  0  0  0  0
    3.7769    3.9921   -2.0712 C   0  0  0  0  0  0  0  0  0  0  0  0
    2.4899    4.3617   -1.7582 C   0  0  0  0  0  0  0  0  0  0  0  0
    1.4848    3.6107   -2.2915 C   0  0  0  0  0  0  0  0  0  0  0  0
    1.8053    2.4885   -3.0789 C   0  0  0  0  0  0  0  0  0  0  0  0
    3.1340    2.0533   -3.4665 C   0  0  0  0  0  0  0  0  0  0  0  0
    2.7616    0.5971   -4.5257 S   0  0  0  0  0  0  0  0  0  0  0  0
    3.5915   -0.7062   -5.3453 C   0  0  0  0  0  0  0  0  0  0  0  0
    4.9494   -0.9295   -5.4319 C   0  0  0  0  0  0  0  0  0  0  0  0
    5.1967   -2.0758   -6.1670 N   0  0  0  0  0  0  0  0  0  0  0  0
    4.0236   -2.6209   -6.5935 C   0  0  0  0  0  0  0  0  0  0  0  0
    3.8532   -3.7921   -7.4111 C   0  0  0  0  0  0  0  0  0  0  0  0
    4.7518   -4.5337   -7.8044 O   0  0  0  0  0  0  0  0  0  0  0  0
    2.5344   -4.0342   -7.6917 N   0  0  0  0  0  0  0  0  0  0  0  0
    1.5324   -3.2160   -7.2187 C   0  0  0  0  0  0  0  0  0  0  0  0
    1.6639   -2.1549   -6.4635 N   0  0  0  0  0  0  0  0  0  0  0  0
    3.0077   -1.8169   -6.1334 C   0  0  0  0  0  0  0  0  0  0  0  0
    7.4874    6.3177   -1.2291 N   0  0  0  0  0  0  0  0  0  0  0  0
    6.6605    7.3671   -1.8269 C   0  0  1  0  0  0  0  0  0  0  0  0
    5.4301    7.6423   -0.9908 C   0  0  0  0  0  0  0  0  0  0  0  0
    5.4929    7.7396    0.5203 C   0  0  0  0  0  0  0  0  0  0  0  0
    4.2544    8.0061    1.1172 C   0  0  0  0  0  0  0  0  0  0  0  0
    4.0526    7.7941    2.4734 C   0  0  0  0  0  0  0  0  0  0  0  0
    5.1031    7.3543    3.2695 C   0  0  0  0  0  0  0  0  0  0  0  0
    6.3758    7.2144    2.7225 C   0  0  0  0  0  0  0  0  0  0  0  0
    6.5780    7.4253    1.3540 C   0  0  0  0  0  0  0  0  0  0  0  0
    7.3781    8.7009   -2.0819 C   0  0  0  0  0  0  0  0  0  0  0  0
    6.8530    9.6504   -2.6172 O   0  0  0  0  0  0  0  0  0  0  0  0
    8.6837    8.7417   -1.7199 O   0  0  0  0  0  0  0  0  0  0  0  0
    3.4846   -3.1113   -1.3440 H   0  0  0  0  0  0  0  0  0  0  0  0
    5.2151   -3.1565   -1.4740 H   0  0  0  0  0  0  0  0  0  0  0  0
    4.2914   -1.9071   -2.3491 H   0  0  0  0  0  0  0  0  0  0  0  0
    3.3922   -1.2157   -0.0325 H   0  0  0  0  0  0  0  0  0  0  0  0
    5.5827   -3.0534    1.0182 H   0  0  0  0  0  0  0  0  0  0  0  0
    3.8575   -3.3010    1.0210 H   0  0  0  0  0  0  0  0  0  0  0  0
    4.5284   -2.0212    2.0223 H   0  0  0  0  0  0  0  0  0  0  0  0
    7.8358    1.6571   -0.8392 H   0  0  0  0  0  0  0  0  0  0  0  0
    8.5067    1.2501    1.4851 H   0  0  0  0  0  0  0  0  0  0  0  0
    8.5273    2.9438    1.0712 H   0  0  0  0  0  0  0  0  0  0  0  0
    5.1248    1.8777    1.9306 H   0  0  0  0  0  0  0  0  0  0  0  0
    4.1118    2.2007    4.1337 H   0  0  0  0  0  0  0  0  0  0  0  0
    5.4843    2.9048    6.0726 H   0  0  0  0  0  0  0  0  0  0  0  0
    7.8981    3.3818    5.7656 H   0  0  0  0  0  0  0  0  0  0  0  0
    8.9498    3.0685    3.5582 H   0  0  0  0  0  0  0  0  0  0  0  0
    5.4327    3.0610   -0.0330 H   0  0  0  0  0  0  0  0  0  0  0  0
    7.2638    4.1770   -3.4726 H   0  0  0  0  0  0  0  0  0  0  0  0
    5.6948    5.0832   -3.2925 H   0  0  0  0  0  0  0  0  0  0  0  0
    4.5067    4.6048   -1.5720 H   0  0  0  0  0  0  0  0  0  0  0  0
    2.3102    5.2197   -1.1172 H   0  0  0  0  0  0  0  0  0  0  0  0
    0.4547    3.8825   -2.0891 H   0  0  0  0  0  0  0  0  0  0  0  0
    0.9236    1.9345   -3.4115 H   0  0  0  0  0  0  0  0  0  0  0  0
    5.7794   -0.3695   -5.0361 H   0  0  0  0  0  0  0  0  0  0  0  0
    6.1047   -2.4757   -6.3729 H   0  0  0  0  0  0  0  0  0  0  0  0
    2.3245   -4.8490   -8.2563 H   0  0  0  0  0  0  0  0  0  0  0  0
    0.5238   -3.5488   -7.5552 H   0  0  0  0  0  0  0  0  0  0  0  0
    8.3039    6.1140   -1.8082 H   0  0  0  0  0  0  0  0  0  0  0  0
    6.3784    7.0494   -2.8356 H   0  0  0  0  0  0  0  0  0  0  0  0
    4.7629    6.7923   -1.1786 H   0  0  0  0  0  0  0  0  0  0  0  0
    4.9106    8.5263   -1.3795 H   0  0  0  0  0  0  0  0  0  0  0  0
    3.4205    8.3277    0.4968 H   0  0  0  0  0  0  0  0  0  0  0  0
    3.0621    7.9396    2.8915 H   0  0  0  0  0  0  0  0  0  0  0  0
    4.9290    7.1248    4.3164 H   0  0  0  0  0  0  0  0  0  0  0  0
    7.2031    6.9055    3.3593 H   0  0  0  0  0  0  0  0  0  0  0  0
    7.5899    7.2835    0.9824 H   0  0  0  0  0  0  0  0  0  0  0  0
    8.9562    7.9286   -1.2575 H   0  0  0  0  0  0  0  0  0  0  0  0
  1  2  1  0  0  0  0
  1 49  1  0  0  0  0
  1 50  1  0  0  0  0
  1 51  1  0  0  0  0
  2  3  1  0  0  0  0
  2  4  1  0  0  0  0
  2 52  1  0  0  0  0
  3 53  1  0  0  0  0
  3 54  1  0  0  0  0
  3 55  1  0  0  0  0
  4  5  1  0  0  0  0
  5  6  2  0  0  0  0
  7 15  1  0  0  0  0
  7  8  1  0  0  0  0
  7  5  1  0  0  0  0
  7 56  1  6  0  0  0
  8  9  1  0  0  0  0
  8 57  1  0  0  0  0
  8 58  1  0  0  0  0
  9 10  1  0  0  0  0
  9 14  2  0  0  0  0
 10 11  2  0  0  0  0
 10 59  1  0  0  0  0
 11 12  1  0  0  0  0
 11 60  1  0  0  0  0
 12 13  2  0  0  0  0
 12 61  1  0  0  0  0
 13 14  1  0  0  0  0
 13 62  1  0  0  0  0
 14 63  1  0  0  0  0
 15 16  1  0  0  0  0
 15 64  1  0  0  0  0
 16 17  2  0  0  0  0
 16 18  1  0  0  0  0
 16 37  1  0  0  0  0
 18 19  1  0  0  0  0
 18 65  1  0  0  0  0
 18 66  1  0  0  0  0
 19 20  1  0  0  0  0
 20 21  1  0  0  0  0
 20 25  2  0  0  0  0
 21 22  2  0  0  0  0
 21 67  1  0  0  0  0
 22 23  1  0  0  0  0
 22 68  1  0  0  0  0
 23 24  2  0  0  0  0
 23 69  1  0  0  0  0
 24 25  1  0  0  0  0
 24 70  1  0  0  0  0
 25 26  1  0  0  0  0
 26 27  1  0  0  0  0
 27 28  2  0  0  0  0
 27 36  1  0  0  0  0
 28 29  1  0  0  0  0
 28 71  1  0  0  0  0
 29 30  1  0  0  0  0
 29 72  1  0  0  0  0
 30 31  1  0  0  0  0
 30 36  2  0  0  0  0
 31 32  2  0  0  0  0
 31 33  1  0  0  0  0
 33 34  1  0  0  0  0
 33 73  1  0  0  0  0
 34 35  2  0  0  0  0
 34 74  1  0  0  0  0
 35 36  1  0  0  0  0
 37 38  1  0  0  0  0
 37 75  1  0  0  0  0
 38 39  1  0  0  0  0
 38 46  1  0  0  0  0
 38 76  1  6  0  0  0
 39 40  1  0  0  0  0
 39 77  1  0  0  0  0
 39 78  1  0  0  0  0
 40 41  1  0  0  0  0
 40 45  2  0  0  0  0
 41 42  2  0  0  0  0
 41 79  1  0  0  0  0
 42 43  1  0  0  0  0
 42 80  1  0  0  0  0
 43 44  2  0  0  0  0
 43 81  1  0  0  0  0
 44 45  1  0  0  0  0
 44 82  1  0  0  0  0
 45 83  1  0  0  0  0
 46 47  2  0  0  0  0
 46 48  1  0  0  0  0
 48 84  1  0  0  0  0
M  END
$$$$
CHEMBL5428161
 OpenBabel05022513013D

 31 31  0  0  0  0  0  0  0  0999 V2000
   -1.6846   -1.8505    0.0099 O   0  0  0  0  0  0  0  0  0  0  0  0
   -1.1528   -0.7610   -0.0994 C   0  0  0  0  0  0  0  0  0  0  0  0
   -1.8488    0.4262   -0.1686 N   0  0  0  0  0  0  0  0  0  0  0  0
   -1.2387    1.6611   -0.0808 C   0  0  0  0  0  0  0  0  0  0  0  0
    0.0402    1.8764    0.0518 N   0  0  0  0  0  0  0  0  0  0  0  0
    0.8178    0.7177   -0.0693 C   0  0  0  0  0  0  0  0  0  0  0  0
    2.2220    0.5961   -0.1206 C   0  0  0  0  0  0  0  0  0  0  0  0
    3.4027    1.8891   -0.0631 S   0  0  0  0  0  0  0  0  0  0  0  0
    4.4214    1.5904   -1.5088 C   0  0  0  0  0  0  0  0  0  0  0  0
    5.5780    0.8157   -1.4354 C   0  0  0  0  0  0  0  0  0  0  0  0
    6.3449    0.5769   -2.5852 C   0  0  0  0  0  0  0  0  0  0  0  0
    5.9466    1.0795   -3.8318 C   0  0  0  0  0  0  0  0  0  0  0  0
    4.7923    1.8603   -3.9443 C   0  0  0  0  0  0  0  0  0  0  0  0
    4.0865    2.2186   -5.5943 P   0  0  0  0  0  0  0  0  0  0  0  0
    3.1688    0.9726   -5.3626 O   0  0  0  0  0  0  0  0  0  0  0  0
    3.3686    3.4571   -4.9664 O   0  5  0  0  0  0  0  0  0  0  0  0
    3.4193    2.5572   -7.1541 O   0  5  0  0  0  0  0  0  0  0  0  0
    4.0732    2.1427   -2.7463 C   0  0  0  0  0  0  0  0  0  0  0  0
    2.4857   -0.7647   -0.0819 C   0  0  0  0  0  0  0  0  0  0  0  0
    1.2920   -1.4414   -0.1343 N   0  0  0  0  0  0  0  0  0  0  0  0
    0.2561   -0.5417   -0.0852 C   0  0  0  0  0  0  0  0  0  0  0  0
    1.4419    1.0363    2.6158 Na  0  3  0  0  0  0  0  0  0  0  0  0
    1.7215    2.2846   -5.0194 Na  0  3  0  0  0  0  0  0  0  0  0  0
   -2.8539    0.3488   -0.2264 H   0  0  0  0  0  0  0  0  0  0  0  0
   -1.9564    2.5024   -0.0940 H   0  0  0  0  0  0  0  0  0  0  0  0
    5.8933    0.3810   -0.4924 H   0  0  0  0  0  0  0  0  0  0  0  0
    7.2373   -0.0396   -2.5219 H   0  0  0  0  0  0  0  0  0  0  0  0
    6.4953    0.8177   -4.7326 H   0  0  0  0  0  0  0  0  0  0  0  0
    3.1983    2.7820   -2.8155 H   0  0  0  0  0  0  0  0  0  0  0  0
    3.4134   -1.3106   -0.0808 H   0  0  0  0  0  0  0  0  0  0  0  0
    1.1652   -2.4560   -0.1785 H   0  0  0  0  0  0  0  0  0  0  0  0
  1  2  2  0  0  0  0
  2  3  1  0  0  0  0
  2 21  1  0  0  0  0
  3  4  1  0  0  0  0
  3 24  1  0  0  0  0
  4  5  2  0  0  0  0
  4 25  1  0  0  0  0
  5  6  1  0  0  0  0
  6  7  1  0  0  0  0
  6 21  2  0  0  0  0
  7  8  1  0  0  0  0
  7 19  2  0  0  0  0
  8  9  1  0  0  0  0
  9 10  1  0  0  0  0
  9 18  2  0  0  0  0
 10 11  2  0  0  0  0
 10 26  1  0  0  0  0
 11 12  1  0  0  0  0
 11 27  1  0  0  0  0
 12 13  2  0  0  0  0
 12 28  1  0  0  0  0
 13 14  1  0  0  0  0
 13 18  1  0  0  0  0
 14 15  2  0  0  0  0
 14 16  1  0  0  0  0
 14 17  1  0  0  0  0
 18 29  1  0  0  0  0
 19 20  1  0  0  0  0
 19 30  1  0  0  0  0
 20 21  1  0  0  0  0
 20 31  1  0  0  0  0
M  CHG  4  16  -1  17  -1  22   1  23   1
M  END
$$$$
CHEMBL5411413
 OpenBabel05022513053D

 39 39  0  0  0  0  0  0  0  0999 V2000
    0.8099   -0.0382   -0.2730 C   0  0  0  0  0  0  0  0  0  0  0  0
    2.2295   -0.0734    0.0004 O   0  0  0  0  0  0  0  0  0  0  0  0
    2.9951   -0.4253   -1.0916 C   0  0  0  0  0  0  0  0  0  0  0  0
    2.6336   -0.1159   -2.3980 C   0  0  0  0  0  0  0  0  0  0  0  0
    3.3545   -0.6776   -3.4552 C   0  0  0  0  0  0  0  0  0  0  0  0
    4.4743   -1.5088   -3.2359 C   0  0  0  0  0  0  0  0  0  0  0  0
    4.9736   -2.2307   -4.3944 C   0  0  0  0  0  0  0  0  0  0  0  0
    4.5181   -3.4530   -4.7071 C   0  0  0  0  0  0  0  0  0  0  0  0
    4.8518   -4.3008   -6.2942 P   0  0  0  0  0  0  0  0  0  0  0  0
    4.7685   -5.6147   -5.4559 O   0  0  0  0  0  0  0  0  0  0  0  0
    3.5548   -3.5917   -6.7783 O   0  5  0  0  0  0  0  0  0  0  0  0
    5.1673   -5.1022   -7.7946 O   0  5  0  0  0  0  0  0  0  0  0  0
    4.9538   -1.6798   -1.9237 C   0  0  0  0  0  0  0  0  0  0  0  0
    6.5601   -2.4060   -1.5225 S   0  0  0  0  0  0  0  0  0  0  0  0
    6.4985   -4.0819   -2.0269 C   0  0  0  0  0  0  0  0  0  0  0  0
    5.6073   -5.0288   -1.5918 C   0  0  0  0  0  0  0  0  0  0  0  0
    5.7579   -6.1507   -2.3813 N   0  0  0  0  0  0  0  0  0  0  0  0
    6.8887   -6.0222   -3.1114 C   0  0  0  0  0  0  0  0  0  0  0  0
    7.3244   -6.9306   -4.1381 C   0  0  0  0  0  0  0  0  0  0  0  0
    7.1459   -8.1535   -4.1300 O   0  0  0  0  0  0  0  0  0  0  0  0
    8.0851   -6.2636   -5.0509 N   0  0  0  0  0  0  0  0  0  0  0  0
    8.5222   -4.9677   -4.8717 C   0  0  0  0  0  0  0  0  0  0  0  0
    8.3107   -4.2045   -3.8365 N   0  0  0  0  0  0  0  0  0  0  0  0
    7.3416   -4.7480   -2.9794 C   0  0  0  0  0  0  0  0  0  0  0  0
    4.1930   -1.1285   -0.8604 C   0  0  0  0  0  0  0  0  0  0  0  0
    2.2050   -3.4088   -0.4677 Na  0  3  0  0  0  0  0  0  0  0  0  0
    2.7875    2.0531    1.4647 Na  0  3  0  0  0  0  0  0  0  0  0  0
    0.2964    0.2187    0.6582 H   0  0  0  0  0  0  0  0  0  0  0  0
    0.4468   -1.0205   -0.6002 H   0  0  0  0  0  0  0  0  0  0  0  0
    0.5515    0.7398   -0.9983 H   0  0  0  0  0  0  0  0  0  0  0  0
    1.7904    0.5094   -2.6578 H   0  0  0  0  0  0  0  0  0  0  0  0
    3.0205   -0.4833   -4.4813 H   0  0  0  0  0  0  0  0  0  0  0  0
    5.6248   -1.7045   -5.1087 H   0  0  0  0  0  0  0  0  0  0  0  0
    3.8026   -3.9831   -4.0997 H   0  0  0  0  0  0  0  0  0  0  0  0
    4.7886   -4.9863   -0.8799 H   0  0  0  0  0  0  0  0  0  0  0  0
    5.0554   -6.8633   -2.5778 H   0  0  0  0  0  0  0  0  0  0  0  0
    8.1105   -6.6907   -5.9788 H   0  0  0  0  0  0  0  0  0  0  0  0
    9.1441   -4.6082   -5.7159 H   0  0  0  0  0  0  0  0  0  0  0  0
    4.5514   -1.2774    0.1593 H   0  0  0  0  0  0  0  0  0  0  0  0
  1  2  1  0  0  0  0
  1 28  1  0  0  0  0
  1 29  1  0  0  0  0
  1 30  1  0  0  0  0
  2  3  1  0  0  0  0
  3  4  1  0  0  0  0
  3 25  2  0  0  0  0
  4  5  2  0  0  0  0
  4 31  1  0  0  0  0
  5  6  1  0  0  0  0
  5 32  1  0  0  0  0
  6  7  1  0  0  0  0
  6 13  2  0  0  0  0
  7  8  2  0  0  0  0
  7 33  1  0  0  0  0
  8  9  1  0  0  0  0
  8 34  1  0  0  0  0
  9 10  2  0  0  0  0
  9 11  1  0  0  0  0
  9 12  1  0  0  0  0
 13 14  1  0  0  0  0
 13 25  1  0  0  0  0
 14 15  1  0  0  0  0
 15 16  2  0  0  0  0
 15 24  1  0  0  0  0
 16 17  1  0  0  0  0
 16 35  1  0  0  0  0
 17 18  1  0  0  0  0
 17 36  1  0  0  0  0
 18 19  1  0  0  0  0
 18 24  2  0  0  0  0
 19 20  2  0  0  0  0
 19 21  1  0  0  0  0
 21 22  1  0  0  0  0
 21 37  1  0  0  0  0
 22 23  2  0  0  0  0
 22 38  1  0  0  0  0
 23 24  1  0  0  0  0
 25 39  1  0  0  0  0
M  CHG  4  11  -1  12  -1  26   1  27   1
M  END
$$$$
CHEMBL5437632
 OpenBabel05022513093D

 73 75  0  0  1  0  0  0  0  0999 V2000
    5.7662   -1.7497   -0.3878 C   0  0  0  0  0  0  0  0  0  0  0  0
    4.7225   -0.6372   -0.3670 C   0  0  0  0  0  0  0  0  0  0  0  0
    3.6822   -0.9102    0.7131 C   0  0  0  0  0  0  0  0  0  0  0  0
    5.3495    0.6275   -0.0711 O   0  0  0  0  0  0  0  0  0  0  0  0
    5.8777    1.2865   -1.1414 C   0  0  0  0  0  0  0  0  0  0  0  0
    5.9051    0.8335   -2.2826 O   0  0  0  0  0  0  0  0  0  0  0  0
    6.4812    2.6546   -0.7935 C   0  0  2  0  0  0  0  0  0  0  0  0
    7.9587    2.6420   -1.1873 C   0  0  0  0  0  0  0  0  0  0  0  0
    6.3103    3.0458    0.6231 N   0  0  0  0  0  0  0  0  0  0  0  0
    6.9036    4.6931    0.9435 P   0  0  3  0  0  0  0  0  0  0  0  0
    5.4737    5.2345    0.9910 O   0  0  0  0  0  0  0  0  0  0  0  0
    7.3739    3.9883    2.7949 C   0  0  0  0  0  0  0  0  0  0  0  0
    7.7511    2.6155    2.6242 O   0  0  0  0  0  0  0  0  0  0  0  0
    9.1015    2.3932    2.5503 C   0  0  0  0  0  0  0  0  0  0  0  0
    9.9526    3.1911    1.7735 C   0  0  0  0  0  0  0  0  0  0  0  0
   11.3028    2.8702    1.6585 C   0  0  0  0  0  0  0  0  0  0  0  0
   11.8099    1.7622    2.3326 C   0  0  0  0  0  0  0  0  0  0  0  0
   10.9628    0.9586    3.0979 C   0  0  0  0  0  0  0  0  0  0  0  0
    9.6002    1.2531    3.2057 C   0  0  0  0  0  0  0  0  0  0  0  0
    8.5199    0.1029    4.0307 S   0  0  0  0  0  0  0  0  0  0  0  0
    8.4346    0.5885    5.7052 C   0  0  0  0  0  0  0  0  0  0  0  0
    7.7118   -0.1371    6.6421 C   0  0  0  0  0  0  0  0  0  0  0  0
    7.8676    0.4510    7.8710 N   0  0  0  0  0  0  0  0  0  0  0  0
    8.6865    1.5367    7.7383 C   0  0  0  0  0  0  0  0  0  0  0  0
    9.1705    2.4033    8.7530 C   0  0  0  0  0  0  0  0  0  0  0  0
    8.9187    2.3115    9.9466 O   0  0  0  0  0  0  0  0  0  0  0  0
    9.9919    3.3804    8.2372 N   0  0  0  0  0  0  0  0  0  0  0  0
   10.2675    3.4795    6.8874 C   0  0  0  0  0  0  0  0  0  0  0  0
    9.8356    2.6995    5.9490 N   0  0  0  0  0  0  0  0  0  0  0  0
    9.0172    1.6610    6.4077 C   0  0  0  0  0  0  0  0  0  0  0  0
    7.4970    6.3404    1.2640 N   0  0  0  0  0  0  0  0  0  0  0  0
    7.8247    6.8616    2.6100 C   0  0  1  0  0  0  0  0  0  0  0  0
    8.3613    8.2937    2.5513 C   0  0  0  0  0  0  0  0  0  0  0  0
    6.6199    6.9088    3.5592 C   0  0  0  0  0  0  0  0  0  0  0  0
    5.5062    7.3128    3.2636 O   0  0  0  0  0  0  0  0  0  0  0  0
    7.0467    6.6558    4.8340 O   0  0  0  0  0  0  0  0  0  0  0  0
    6.7015    7.6717    5.7928 C   0  0  0  0  0  0  0  0  0  0  0  0
    5.2721    7.5558    6.3013 C   0  0  0  0  0  0  0  0  0  0  0  0
    7.6963    7.5385    6.9426 C   0  0  0  0  0  0  0  0  0  0  0  0
    5.3143   -2.7023   -0.6835 H   0  0  0  0  0  0  0  0  0  0  0  0
    6.2227   -1.8766    0.5998 H   0  0  0  0  0  0  0  0  0  0  0  0
    6.5785   -1.5215   -1.0845 H   0  0  0  0  0  0  0  0  0  0  0  0
    4.2048   -0.5874   -1.3331 H   0  0  0  0  0  0  0  0  0  0  0  0
    4.1443   -0.9445    1.7056 H   0  0  0  0  0  0  0  0  0  0  0  0
    3.1675   -1.8605    0.5346 H   0  0  0  0  0  0  0  0  0  0  0  0
    2.9358   -0.1098    0.7380 H   0  0  0  0  0  0  0  0  0  0  0  0
    5.9403    3.3871   -1.4039 H   0  0  0  0  0  0  0  0  0  0  0  0
    8.5138    1.8774   -0.6329 H   0  0  0  0  0  0  0  0  0  0  0  0
    8.4356    3.6117   -1.0125 H   0  0  0  0  0  0  0  0  0  0  0  0
    8.0767    2.4202   -2.2537 H   0  0  0  0  0  0  0  0  0  0  0  0
    6.7367    2.3422    1.2269 H   0  0  0  0  0  0  0  0  0  0  0  0
    6.4384    4.0448    3.3581 H   0  0  0  0  0  0  0  0  0  0  0  0
    8.1713    4.5283    3.2893 H   0  0  0  0  0  0  0  0  0  0  0  0
    9.5878    4.0431    1.2145 H   0  0  0  0  0  0  0  0  0  0  0  0
   11.9549    3.4738    1.0330 H   0  0  0  0  0  0  0  0  0  0  0  0
   12.8661    1.5086    2.2472 H   0  0  0  0  0  0  0  0  0  0  0  0
   11.3724    0.0809    3.5960 H   0  0  0  0  0  0  0  0  0  0  0  0
    7.1091   -1.0308    6.5345 H   0  0  0  0  0  0  0  0  0  0  0  0
    7.4676    0.1274    8.7445 H   0  0  0  0  0  0  0  0  0  0  0  0
   10.3962    4.0184    8.9006 H   0  0  0  0  0  0  0  0  0  0  0  0
   10.9260    4.3276    6.6511 H   0  0  0  0  0  0  0  0  0  0  0  0
    6.6858    6.8872    0.9510 H   0  0  0  0  0  0  0  0  0  0  0  0
    8.6423    6.2859    3.0438 H   0  0  0  0  0  0  0  0  0  0  0  0
    7.6807    8.9666    2.0214 H   0  0  0  0  0  0  0  0  0  0  0  0
    9.3443    8.3249    2.0735 H   0  0  0  0  0  0  0  0  0  0  0  0
    8.4844    8.6952    3.5662 H   0  0  0  0  0  0  0  0  0  0  0  0
    6.8467    8.6560    5.3304 H   0  0  0  0  0  0  0  0  0  0  0  0
    5.0905    6.5803    6.7615 H   0  0  0  0  0  0  0  0  0  0  0  0
    4.5476    7.6677    5.4904 H   0  0  0  0  0  0  0  0  0  0  0  0
    5.0655    8.3394    7.0383 H   0  0  0  0  0  0  0  0  0  0  0  0
    7.5869    6.5724    7.4484 H   0  0  0  0  0  0  0  0  0  0  0  0
    7.5622    8.3368    7.6786 H   0  0  0  0  0  0  0  0  0  0  0  0
    8.7254    7.5798    6.5673 H   0  0  0  0  0  0  0  0  0  0  0  0
  1  2  1  0  0  0  0
  1 40  1  0  0  0  0
  1 41  1  0  0  0  0
  1 42  1  0  0  0  0
  2  3  1  0  0  0  0
  2  4  1  0  0  0  0
  2 43  1  0  0  0  0
  3 44  1  0  0  0  0
  3 45  1  0  0  0  0
  3 46  1  0  0  0  0
  4  5  1  0  0  0  0
  5  6  2  0  0  0  0
  7  9  1  0  0  0  0
  7  8  1  0  0  0  0
  7  5  1  0  0  0  0
  7 47  1  6  0  0  0
  8 48  1  0  0  0  0
  8 49  1  0  0  0  0
  8 50  1  0  0  0  0
  9 10  1  0  0  0  0
  9 51  1  0  0  0  0
 10 11  2  0  0  0  0
 10 12  1  0  0  0  0
 10 31  1  0  0  0  0
 12 13  1  0  0  0  0
 12 52  1  0  0  0  0
 12 53  1  0  0  0  0
 13 14  1  0  0  0  0
 14 15  1  0  0  0  0
 14 19  2  0  0  0  0
 15 16  2  0  0  0  0
 15 54  1  0  0  0  0
 16 17  1  0  0  0  0
 16 55  1  0  0  0  0
 17 18  2  0  0  0  0
 17 56  1  0  0  0  0
 18 19  1  0  0  0  0
 18 57  1  0  0  0  0
 19 20  1  0  0  0  0
 20 21  1  0  0  0  0
 21 22  2  0  0  0  0
 21 30  1  0  0  0  0
 22 23  1  0  0  0  0
 22 58  1  0  0  0  0
 23 24  1  0  0  0  0
 23 59  1  0  0  0  0
 24 25  1  0  0  0  0
 24 30  2  0  0  0  0
 25 26  2  0  0  0  0
 25 27  1  0  0  0  0
 27 28  1  0  0  0  0
 27 60  1  0  0  0  0
 28 29  2  0  0  0  0
 28 61  1  0  0  0  0
 29 30  1  0  0  0  0
 31 32  1  0  0  0  0
 31 62  1  0  0  0  0
 32 33  1  0  0  0  0
 32 34  1  0  0  0  0
 32 63  1  1  0  0  0
 33 64  1  0  0  0  0
 33 65  1  0  0  0  0
 33 66  1  0  0  0  0
 34 35  2  0  0  0  0
 34 36  1  0  0  0  0
 36 37  1  0  0  0  0
 37 38  1  0  0  0  0
 37 39  1  0  0  0  0
 37 67  1  0  0  0  0
 38 68  1  0  0  0  0
 38 69  1  0  0  0  0
 38 70  1  0  0  0  0
 39 71  1  0  0  0  0
 39 72  1  0  0  0  0
 39 73  1  0  0  0  0
M  END
$$$$
CHEMBL5440385
 OpenBabel05022513143D

 34 34  0  0  0  0  0  0  0  0999 V2000
   -1.6377   -2.1079    0.1251 O   0  0  0  0  0  0  0  0  0  0  0  0
   -1.1282   -1.0720    0.5283 C   0  0  0  0  0  0  0  0  0  0  0  0
   -1.7780   -0.1792    1.3421 N   0  0  0  0  0  0  0  0  0  0  0  0
   -1.1202    0.8536    1.9966 C   0  0  0  0  0  0  0  0  0  0  0  0
    0.1435    1.1323    1.9255 N   0  0  0  0  0  0  0  0  0  0  0  0
    0.7929    0.4013    0.9188 C   0  0  0  0  0  0  0  0  0  0  0  0
    2.0819    0.5990    0.3868 C   0  0  0  0  0  0  0  0  0  0  0  0
    3.2221    1.8633    0.7702 S   0  0  0  0  0  0  0  0  0  0  0  0
    2.4867    3.4663    0.3504 C   0  0  0  0  0  0  0  0  0  0  0  0
    2.9284    4.5351    1.1565 C   0  0  0  0  0  0  0  0  0  0  0  0
    2.5424    5.8529    0.8995 C   0  0  0  0  0  0  0  0  0  0  0  0
    1.7206    6.1339   -0.1843 C   0  0  0  0  0  0  0  0  0  0  0  0
    1.2569    5.0937   -0.9873 C   0  0  0  0  0  0  0  0  0  0  0  0
    1.6245    3.7576   -0.7308 C   0  0  0  0  0  0  0  0  0  0  0  0
    1.0255    2.6780   -1.5798 C   0  0  0  0  0  0  0  0  0  0  0  0
    0.5859    2.8102   -3.3577 P   0  0  0  0  0  0  0  0  0  0  0  0
   -0.6081    3.7225   -3.4611 O   0  0  0  0  0  0  0  0  0  0  0  0
    0.3983    1.3324   -3.7192 O   0  5  0  0  0  0  0  0  0  0  0  0
    1.8927    3.2272   -4.0207 O   0  5  0  0  0  0  0  0  0  0  0  0
    2.2982   -0.4518   -0.4881 C   0  0  0  0  0  0  0  0  0  0  0  0
    1.1298   -1.1830   -0.5850 N   0  0  0  0  0  0  0  0  0  0  0  0
    0.2186   -0.6705    0.2977 C   0  0  0  0  0  0  0  0  0  0  0  0
    2.2395    1.3352   -4.5046 Na  0  3  0  0  0  0  0  0  0  0  0  0
    2.0873    0.5961    3.2627 Na  0  3  0  0  0  0  0  0  0  0  0  0
   -2.7566   -0.3582    1.5015 H   0  0  0  0  0  0  0  0  0  0  0  0
   -1.7927    1.4234    2.6650 H   0  0  0  0  0  0  0  0  0  0  0  0
    3.6056    4.3564    1.9872 H   0  0  0  0  0  0  0  0  0  0  0  0
    2.9087    6.6622    1.5272 H   0  0  0  0  0  0  0  0  0  0  0  0
    1.4364    7.1593   -0.4145 H   0  0  0  0  0  0  0  0  0  0  0  0
    0.6169    5.3223   -1.8438 H   0  0  0  0  0  0  0  0  0  0  0  0
    0.1420    2.2773   -1.0780 H   0  0  0  0  0  0  0  0  0  0  0  0
    1.7864    1.9061   -1.6850 H   0  0  0  0  0  0  0  0  0  0  0  0
    3.1378   -0.7004   -1.1248 H   0  0  0  0  0  0  0  0  0  0  0  0
    0.9471   -1.9430   -1.2327 H   0  0  0  0  0  0  0  0  0  0  0  0
  1  2  2  0  0  0  0
  2  3  1  0  0  0  0
  2 22  1  0  0  0  0
  3  4  1  0  0  0  0
  3 25  1  0  0  0  0
  4  5  2  0  0  0  0
  4 26  1  0  0  0  0
  5  6  1  0  0  0  0
  6  7  1  0  0  0  0
  6 22  2  0  0  0  0
  7  8  1  0  0  0  0
  7 20  2  0  0  0  0
  8  9  1  0  0  0  0
  9 10  1  0  0  0  0
  9 14  2  0  0  0  0
 10 11  2  0  0  0  0
 10 27  1  0  0  0  0
 11 12  1  0  0  0  0
 11 28  1  0  0  0  0
 12 13  2  0  0  0  0
 12 29  1  0  0  0  0
 13 14  1  0  0  0  0
 13 30  1  0  0  0  0
 14 15  1  0  0  0  0
 15 16  1  0  0  0  0
 15 31  1  0  0  0  0
 15 32  1  0  0  0  0
 16 17  2  0  0  0  0
 16 18  1  0  0  0  0
 16 19  1  0  0  0  0
 20 21  1  0  0  0  0
 20 33  1  0  0  0  0
 21 22  1  0  0  0  0
 21 34  1  0  0  0  0
M  CHG  4  18  -1  19  -1  23   1  24   1
M  END
$$$$
CHEMBL5401879
 OpenBabel05022513183D

 35 35  0  0  0  0  0  0  0  0999 V2000
   -0.1176   -3.2146   -0.8453 O   0  0  0  0  0  0  0  0  0  0  0  0
    0.7050   -2.5957   -0.1735 C   0  0  0  0  0  0  0  0  0  0  0  0
    1.3737   -3.1505    0.8928 N   0  0  0  0  0  0  0  0  0  0  0  0
    2.1783   -2.4100    1.7312 C   0  0  0  0  0  0  0  0  0  0  0  0
    2.4487   -1.1361    1.6363 N   0  0  0  0  0  0  0  0  0  0  0  0
    1.9254   -0.5567    0.4678 C   0  0  0  0  0  0  0  0  0  0  0  0
    2.1528    0.7357   -0.0767 C   0  0  0  0  0  0  0  0  0  0  0  0
    3.3113    1.9328    0.4478 S   0  0  0  0  0  0  0  0  0  0  0  0
    2.4962    3.5242    0.1990 C   0  0  0  0  0  0  0  0  0  0  0  0
    1.7381    3.9784    1.3020 C   0  0  0  0  0  0  0  0  0  0  0  0
    1.1420    5.2392    1.3121 C   0  0  0  0  0  0  0  0  0  0  0  0
    1.3219    6.0867    0.2329 C   0  0  0  0  0  0  0  0  0  0  0  0
    2.0736    5.6607   -0.8608 C   0  0  0  0  0  0  0  0  0  0  0  0
    2.6488    4.3720   -0.9264 C   0  0  0  0  0  0  0  0  0  0  0  0
    3.4270    4.0484   -2.1460 C   0  0  0  0  0  0  0  0  0  0  0  0
    3.1253    4.5199   -3.3783 C   0  0  0  0  0  0  0  0  0  0  0  0
    4.0046    4.2471   -4.9599 P   0  0  0  0  0  0  0  0  0  0  0  0
    4.7599    3.0274   -4.3336 O   0  0  0  0  0  0  0  0  0  0  0  0
    2.6677    3.7026   -5.5570 O   0  5  0  0  0  0  0  0  0  0  0  0
    4.8358    3.9892   -6.4550 O   0  5  0  0  0  0  0  0  0  0  0  0
    1.3292    0.8303   -1.1772 C   0  0  0  0  0  0  0  0  0  0  0  0
    0.6765   -0.3597   -1.3515 N   0  0  0  0  0  0  0  0  0  0  0  0
    1.0543   -1.2255   -0.3628 C   0  0  0  0  0  0  0  0  0  0  0  0
    1.5565    0.6790    2.8738 Na  0  3  0  0  0  0  0  0  0  0  0  0
    3.8204    2.0326   -5.8377 Na  0  3  0  0  0  0  0  0  0  0  0  0
    1.1908   -4.1317    1.0672 H   0  0  0  0  0  0  0  0  0  0  0  0
    2.5737   -3.0014    2.5766 H   0  0  0  0  0  0  0  0  0  0  0  0
    1.6304    3.3716    2.1915 H   0  0  0  0  0  0  0  0  0  0  0  0
    0.5676    5.5768    2.1701 H   0  0  0  0  0  0  0  0  0  0  0  0
    0.8978    7.0876    0.2336 H   0  0  0  0  0  0  0  0  0  0  0  0
    2.2263    6.3696   -1.6744 H   0  0  0  0  0  0  0  0  0  0  0  0
    4.2951    3.4035   -2.0363 H   0  0  0  0  0  0  0  0  0  0  0  0
    2.2507    5.1365   -3.5390 H   0  0  0  0  0  0  0  0  0  0  0  0
    1.1982    1.6197   -1.9088 H   0  0  0  0  0  0  0  0  0  0  0  0
    0.0614   -0.6029   -2.1224 H   0  0  0  0  0  0  0  0  0  0  0  0
  1  2  2  0  0  0  0
  2  3  1  0  0  0  0
  2 23  1  0  0  0  0
  3  4  1  0  0  0  0
  3 26  1  0  0  0  0
  4  5  2  0  0  0  0
  4 27  1  0  0  0  0
  5  6  1  0  0  0  0
  6  7  1  0  0  0  0
  6 23  2  0  0  0  0
  7  8  1  0  0  0  0
  7 21  2  0  0  0  0
  8  9  1  0  0  0  0
  9 10  1  0  0  0  0
  9 14  2  0  0  0  0
 10 11  2  0  0  0  0
 10 28  1  0  0  0  0
 11 12  1  0  0  0  0
 11 29  1  0  0  0  0
 12 13  2  0  0  0  0
 12 30  1  0  0  0  0
 13 14  1  0  0  0  0
 13 31  1  0  0  0  0
 14 15  1  0  0  0  0
 15 16  2  0  0  0  0
 15 32  1  0  0  0  0
 16 17  1  0  0  0  0
 16 33  1  0  0  0  0
 17 18  2  0  0  0  0
 17 19  1  0  0  0  0
 17 20  1  0  0  0  0
 21 22  1  0  0  0  0
 21 34  1  0  0  0  0
 22 23  1  0  0  0  0
 22 35  1  0  0  0  0
M  CHG  4  19  -1  20  -1  24   1  25   1
M  END
$$$$
CHEMBL5433419
 OpenBabel05022513223D

 29 31  0  0  0  0  0  0  0  0999 V2000
    0.3143   -0.8279   -2.4933 C   0  0  0  0  0  0  0  0  0  0  0  0
    0.1040   -0.3596   -1.0795 C   0  0  0  0  0  0  0  0  0  0  0  0
   -0.4662    0.9124   -0.8796 C   0  0  0  0  0  0  0  0  0  0  0  0
   -0.7128    1.3955    0.4053 C   0  0  0  0  0  0  0  0  0  0  0  0
   -0.3855    0.6186    1.5105 C   0  0  0  0  0  0  0  0  0  0  0  0
    0.2028   -0.6345    1.3300 C   0  0  0  0  0  0  0  0  0  0  0  0
    0.4645   -1.1327    0.0445 C   0  0  0  0  0  0  0  0  0  0  0  0
    1.1529   -2.7853   -0.0718 S   0  0  0  0  0  0  0  0  0  0  0  0
    2.8688   -2.4905    0.0463 C   0  0  0  0  0  0  0  0  0  0  0  0
    3.7418   -2.4687   -1.0254 C   0  0  0  0  0  0  0  0  0  0  0  0
    5.0077   -2.2234   -0.5453 N   0  0  0  0  0  0  0  0  0  0  0  0
    4.9490   -2.0892    0.8135 C   0  0  0  0  0  0  0  0  0  0  0  0
    6.0034   -1.7921    1.7245 C   0  0  0  0  0  0  0  0  0  0  0  0
    7.1700   -1.5969    1.4155 O   0  0  0  0  0  0  0  0  0  0  0  0
    5.5520   -1.7452    3.0188 N   0  0  0  0  0  0  0  0  0  0  0  0
    4.2384   -1.9884    3.3609 C   0  0  0  0  0  0  0  0  0  0  0  0
    3.2610   -2.2551    2.5504 N   0  0  0  0  0  0  0  0  0  0  0  0
    3.6490   -2.2859    1.2031 C   0  0  0  0  0  0  0  0  0  0  0  0
   -0.2196   -0.1865   -3.2051 H   0  0  0  0  0  0  0  0  0  0  0  0
   -0.0765   -1.8400   -2.6363 H   0  0  0  0  0  0  0  0  0  0  0  0
    1.3771   -0.7988   -2.7520 H   0  0  0  0  0  0  0  0  0  0  0  0
   -0.7371    1.5327   -1.7316 H   0  0  0  0  0  0  0  0  0  0  0  0
   -1.1689    2.3728    0.5412 H   0  0  0  0  0  0  0  0  0  0  0  0
   -0.5915    0.9811    2.5138 H   0  0  0  0  0  0  0  0  0  0  0  0
    0.4515   -1.2309    2.2063 H   0  0  0  0  0  0  0  0  0  0  0  0
    3.5723   -2.6052   -2.0846 H   0  0  0  0  0  0  0  0  0  0  0  0
    5.8529   -2.1484   -1.0993 H   0  0  0  0  0  0  0  0  0  0  0  0
    6.2402   -1.5252    3.7234 H   0  0  0  0  0  0  0  0  0  0  0  0
    4.0628   -1.9359    4.4476 H   0  0  0  0  0  0  0  0  0  0  0  0
  1  2  1  0  0  0  0
  1 19  1  0  0  0  0
  1 20  1  0  0  0  0
  1 21  1  0  0  0  0
  2  3  1  0  0  0  0
  2  7  2  0  0  0  0
  3  4  2  0  0  0  0
  3 22  1  0  0  0  0
  4  5  1  0  0  0  0
  4 23  1  0  0  0  0
  5  6  2  0  0  0  0
  5 24  1  0  0  0  0
  6  7  1  0  0  0  0
  6 25  1  0  0  0  0
  7  8  1  0  0  0  0
  8  9  1  0  0  0  0
  9 10  2  0  0  0  0
  9 18  1  0  0  0  0
 10 11  1  0  0  0  0
 10 26  1  0  0  0  0
 11 12  1  0  0  0  0
 11 27  1  0  0  0  0
 12 13  1  0  0  0  0
 12 18  2  0  0  0  0
 13 14  2  0  0  0  0
 13 15  1  0  0  0  0
 15 16  1  0  0  0  0
 15 28  1  0  0  0  0
 16 17  2  0  0  0  0
 16 29  1  0  0  0  0
 17 18  1  0  0  0  0
M  END
$$$$
CHEMBL5414231
 OpenBabel05022513263D

 26 28  0  0  0  0  0  0  0  0999 V2000
   -1.6790   -1.8055    0.0003 O   0  0  0  0  0  0  0  0  0  0  0  0
   -1.1599   -0.6952   -0.0100 C   0  0  0  0  0  0  0  0  0  0  0  0
   -1.8885    0.4687   -0.0371 N   0  0  0  0  0  0  0  0  0  0  0  0
   -1.2971    1.7140   -0.0559 C   0  0  0  0  0  0  0  0  0  0  0  0
   -0.0260    1.9713   -0.0430 N   0  0  0  0  0  0  0  0  0  0  0  0
    0.7728    0.8201   -0.0117 C   0  0  0  0  0  0  0  0  0  0  0  0
    2.1773    0.7078    0.0051 C   0  0  0  0  0  0  0  0  0  0  0  0
    3.3553    1.9944   -0.0567 S   0  0  0  0  0  0  0  0  0  0  0  0
    3.6537    2.3305    1.6703 C   0  0  0  0  0  0  0  0  0  0  0  0
    4.9283    2.1228    2.2149 C   0  0  0  0  0  0  0  0  0  0  0  0
    5.1860    2.4272    3.5549 C   0  0  0  0  0  0  0  0  0  0  0  0
    4.1730    2.9502    4.3576 C   0  0  0  0  0  0  0  0  0  0  0  0
    2.9084    3.1697    3.8124 C   0  0  0  0  0  0  0  0  0  0  0  0
    1.5388    3.9028    4.8906 Br  0  0  0  0  0  0  0  0  0  0  0  0
    2.6450    2.8662    2.4767 C   0  0  0  0  0  0  0  0  0  0  0  0
    2.4640   -0.6444    0.0198 C   0  0  0  0  0  0  0  0  0  0  0  0
    1.2732   -1.3367    0.0202 N   0  0  0  0  0  0  0  0  0  0  0  0
    0.2392   -0.4418    0.0024 C   0  0  0  0  0  0  0  0  0  0  0  0
   -2.8916    0.3692   -0.0456 H   0  0  0  0  0  0  0  0  0  0  0  0
   -2.0318    2.5356   -0.0834 H   0  0  0  0  0  0  0  0  0  0  0  0
    5.7334    1.7298    1.5975 H   0  0  0  0  0  0  0  0  0  0  0  0
    6.1779    2.2649    3.9697 H   0  0  0  0  0  0  0  0  0  0  0  0
    4.3790    3.1905    5.3970 H   0  0  0  0  0  0  0  0  0  0  0  0
    1.6607    3.0570    2.0570 H   0  0  0  0  0  0  0  0  0  0  0  0
    3.4066   -1.1746    0.0191 H   0  0  0  0  0  0  0  0  0  0  0  0
    1.1676   -2.3445    0.0216 H   0  0  0  0  0  0  0  0  0  0  0  0
  1  2  2  0  0  0  0
  2  3  1  0  0  0  0
  2 18  1  0  0  0  0
  3  4  1  0  0  0  0
  3 19  1  0  0  0  0
  4  5  2  0  0  0  0
  4 20  1  0  0  0  0
  5  6  1  0  0  0  0
  6  7  1  0  0  0  0
  6 18  2  0  0  0  0
  7  8  1  0  0  0  0
  7 16  2  0  0  0  0
  8  9  1  0  0  0  0
  9 10  1  0  0  0  0
  9 15  2  0  0  0  0
 10 11  2  0  0  0  0
 10 21  1  0  0  0  0
 11 12  1  0  0  0  0
 11 22  1  0  0  0  0
 12 13  2  0  0  0  0
 12 23  1  0  0  0  0
 13 14  1  0  0  0  0
 13 15  1  0  0  0  0
 15 24  1  0  0  0  0
 16 17  1  0  0  0  0
 16 25  1  0  0  0  0
 17 18  1  0  0  0  0
 17 26  1  0  0  0  0
M  END
$$$$
CHEMBL5422750
 OpenBabel05022513303D

 74 78  0  0  1  0  0  0  0  0999 V2000
    1.4393    0.8507   -0.0778 C   0  0  0  0  0  0  0  0  0  0  0  0
    2.5166    1.7551   -0.6677 C   0  0  0  0  0  0  0  0  0  0  0  0
    1.8316    2.8896   -1.4394 C   0  0  0  0  0  0  0  0  0  0  0  0
    3.3320    2.3169    0.3937 O   0  0  0  0  0  0  0  0  0  0  0  0
    4.4158    1.5895    0.8519 C   0  0  0  0  0  0  0  0  0  0  0  0
    4.7301    0.4887    0.4179 O   0  0  0  0  0  0  0  0  0  0  0  0
    5.1537    2.3692    1.9614 C   0  0  2  0  0  0  0  0  0  0  0  0
    5.5774    3.7687    1.4648 C   0  0  0  0  0  0  0  0  0  0  0  0
    6.7412    3.8123    0.5026 C   0  0  0  0  0  0  0  0  0  0  0  0
    6.6509    3.2323   -0.7704 C   0  0  0  0  0  0  0  0  0  0  0  0
    7.7111    3.3221   -1.6718 C   0  0  0  0  0  0  0  0  0  0  0  0
    8.8697    4.0052   -1.3171 C   0  0  0  0  0  0  0  0  0  0  0  0
    8.9726    4.5899   -0.0569 C   0  0  0  0  0  0  0  0  0  0  0  0
    7.9153    4.4957    0.8497 C   0  0  0  0  0  0  0  0  0  0  0  0
    6.2904    1.6077    2.6451 N   0  0  0  0  0  0  0  0  0  0  0  0
    6.8838    2.4731    4.0830 P   0  0  3  0  0  0  0  0  0  0  0  0
    5.4424    2.5074    4.6437 O   0  0  0  0  0  0  0  0  0  0  0  0
    7.5833    0.8388    4.8728 C   0  0  0  0  0  0  0  0  0  0  0  0
    8.9463    0.7780    4.4694 O   0  0  0  0  0  0  0  0  0  0  0  0
    9.3017   -0.3397    3.7590 C   0  0  0  0  0  0  0  0  0  0  0  0
    8.7387   -1.6014    3.9960 C   0  0  0  0  0  0  0  0  0  0  0  0
    9.0471   -2.6786    3.1664 C   0  0  0  0  0  0  0  0  0  0  0  0
    9.9493   -2.5110    2.1208 C   0  0  0  0  0  0  0  0  0  0  0  0
   10.5764   -1.2772    1.9302 C   0  0  0  0  0  0  0  0  0  0  0  0
   10.2804   -0.1873    2.7603 C   0  0  0  0  0  0  0  0  0  0  0  0
   11.0190    1.3974    2.3993 S   0  0  0  0  0  0  0  0  0  0  0  0
   12.6098    1.4031    3.1295 C   0  0  0  0  0  0  0  0  0  0  0  0
   13.5060    2.4415    2.9247 C   0  0  0  0  0  0  0  0  0  0  0  0
   14.6484    2.1909    3.6463 N   0  0  0  0  0  0  0  0  0  0  0  0
   14.4862    1.0201    4.3283 C   0  0  0  0  0  0  0  0  0  0  0  0
   15.3875    0.4023    5.2391 C   0  0  0  0  0  0  0  0  0  0  0  0
   16.4947    0.8346    5.5444 O   0  0  0  0  0  0  0  0  0  0  0  0
   14.8643   -0.7532    5.7649 N   0  0  0  0  0  0  0  0  0  0  0  0
   13.6213   -1.2310    5.4051 C   0  0  0  0  0  0  0  0  0  0  0  0
   12.7921   -0.6926    4.5680 N   0  0  0  0  0  0  0  0  0  0  0  0
   13.2522    0.5073    4.0130 C   0  0  0  0  0  0  0  0  0  0  0  0
    7.4604    3.3141    5.4805 O   0  0  0  0  0  0  0  0  0  0  0  0
    7.2784    4.6638    5.6356 C   0  0  0  0  0  0  0  0  0  0  0  0
    6.1816    5.3674    5.1433 C   0  0  0  0  0  0  0  0  0  0  0  0
    6.0660    6.7402    5.3758 C   0  0  0  0  0  0  0  0  0  0  0  0
    7.0422    7.4092    6.1106 C   0  0  0  0  0  0  0  0  0  0  0  0
    8.1277    6.7027    6.6257 C   0  0  0  0  0  0  0  0  0  0  0  0
    8.2421    5.3306    6.3923 C   0  0  0  0  0  0  0  0  0  0  0  0
    0.7705    0.4724   -0.8596 H   0  0  0  0  0  0  0  0  0  0  0  0
    0.8338    1.3923    0.6579 H   0  0  0  0  0  0  0  0  0  0  0  0
    1.8849   -0.0037    0.4377 H   0  0  0  0  0  0  0  0  0  0  0  0
    3.1453    1.1962   -1.3700 H   0  0  0  0  0  0  0  0  0  0  0  0
    1.2211    3.5147   -0.7775 H   0  0  0  0  0  0  0  0  0  0  0  0
    1.1771    2.4916   -2.2254 H   0  0  0  0  0  0  0  0  0  0  0  0
    2.5668    3.5475   -1.9128 H   0  0  0  0  0  0  0  0  0  0  0  0
    4.3568    2.5041    2.7025 H   0  0  0  0  0  0  0  0  0  0  0  0
    4.7333    4.2851    0.9896 H   0  0  0  0  0  0  0  0  0  0  0  0
    5.8206    4.3865    2.3365 H   0  0  0  0  0  0  0  0  0  0  0  0
    5.7518    2.7141   -1.0932 H   0  0  0  0  0  0  0  0  0  0  0  0
    7.6234    2.8675   -2.6552 H   0  0  0  0  0  0  0  0  0  0  0  0
    9.6876    4.0899   -2.0269 H   0  0  0  0  0  0  0  0  0  0  0  0
    9.8745    5.1319    0.2153 H   0  0  0  0  0  0  0  0  0  0  0  0
    8.0128    4.9828    1.8181 H   0  0  0  0  0  0  0  0  0  0  0  0
    7.0400    1.4855    1.9660 H   0  0  0  0  0  0  0  0  0  0  0  0
    6.9268    0.0332    4.5308 H   0  0  0  0  0  0  0  0  0  0  0  0
    7.5195    0.9339    5.9618 H   0  0  0  0  0  0  0  0  0  0  0  0
    8.0443   -1.7671    4.8150 H   0  0  0  0  0  0  0  0  0  0  0  0
    8.5707   -3.6421    3.3291 H   0  0  0  0  0  0  0  0  0  0  0  0
   10.1663   -3.3401    1.4530 H   0  0  0  0  0  0  0  0  0  0  0  0
   11.2850   -1.1652    1.1140 H   0  0  0  0  0  0  0  0  0  0  0  0
   13.4214    3.3453    2.3365 H   0  0  0  0  0  0  0  0  0  0  0  0
   15.4677    2.7857    3.6986 H   0  0  0  0  0  0  0  0  0  0  0  0
   15.4347   -1.2389    6.4408 H   0  0  0  0  0  0  0  0  0  0  0  0
   13.3642   -2.1743    5.9159 H   0  0  0  0  0  0  0  0  0  0  0  0
    5.3735    4.8698    4.6184 H   0  0  0  0  0  0  0  0  0  0  0  0
    5.2005    7.2811    5.0013 H   0  0  0  0  0  0  0  0  0  0  0  0
    6.9459    8.4755    6.2985 H   0  0  0  0  0  0  0  0  0  0  0  0
    8.8791    7.2172    7.2188 H   0  0  0  0  0  0  0  0  0  0  0  0
    9.0810    4.7798    6.8097 H   0  0  0  0  0  0  0  0  0  0  0  0
  1  2  1  0  0  0  0
  1 44  1  0  0  0  0
  1 45  1  0  0  0  0
  1 46  1  0  0  0  0
  2  3  1  0  0  0  0
  2  4  1  0  0  0  0
  2 47  1  0  0  0  0
  3 48  1  0  0  0  0
  3 49  1  0  0  0  0
  3 50  1  0  0  0  0
  4  5  1  0  0  0  0
  5  6  2  0  0  0  0
  7 15  1  0  0  0  0
  7  8  1  0  0  0  0
  7  5  1  0  0  0  0
  7 51  1  1  0  0  0
  8  9  1  0  0  0  0
  8 52  1  0  0  0  0
  8 53  1  0  0  0  0
  9 10  1  0  0  0  0
  9 14  2  0  0  0  0
 10 11  2  0  0  0  0
 10 54  1  0  0  0  0
 11 12  1  0  0  0  0
 11 55  1  0  0  0  0
 12 13  2  0  0  0  0
 12 56  1  0  0  0  0
 13 14  1  0  0  0  0
 13 57  1  0  0  0  0
 14 58  1  0  0  0  0
 15 16  1  0  0  0  0
 15 59  1  0  0  0  0
 16 17  2  0  0  0  0
 16 18  1  0  0  0  0
 16 37  1  0  0  0  0
 18 19  1  0  0  0  0
 18 60  1  0  0  0  0
 18 61  1  0  0  0  0
 19 20  1  0  0  0  0
 20 21  1  0  0  0  0
 20 25  2  0  0  0  0
 21 22  2  0  0  0  0
 21 62  1  0  0  0  0
 22 23  1  0  0  0  0
 22 63  1  0  0  0  0
 23 24  2  0  0  0  0
 23 64  1  0  0  0  0
 24 25  1  0  0  0  0
 24 65  1  0  0  0  0
 25 26  1  0  0  0  0
 26 27  1  0  0  0  0
 27 28  2  0  0  0  0
 27 36  1  0  0  0  0
 28 29  1  0  0  0  0
 28 66  1  0  0  0  0
 29 30  1  0  0  0  0
 29 67  1  0  0  0  0
 30 31  1  0  0  0  0
 30 36  2  0  0  0  0
 31 32  2  0  0  0  0
 31 33  1  0  0  0  0
 33 34  1  0  0  0  0
 33 68  1  0  0  0  0
 34 35  2  0  0  0  0
 34 69  1  0  0  0  0
 35 36  1  0  0  0  0
 37 38  1  0  0  0  0
 38 39  1  0  0  0  0
 38 43  2  0  0  0  0
 39 40  2  0  0  0  0
 39 70  1  0  0  0  0
 40 41  1  0  0  0  0
 40 71  1  0  0  0  0
 41 42  2  0  0  0  0
 41 72  1  0  0  0  0
 42 43  1  0  0  0  0
 42 73  1  0  0  0  0
 43 74  1  0  0  0  0
M  END
$$$$
CHEMBL5440187
 OpenBabel05022513343D

 26 28  0  0  0  0  0  0  0  0999 V2000
   -1.6811   -1.8115    0.0423 O   0  0  0  0  0  0  0  0  0  0  0  0
   -1.1602   -0.7041    0.0107 C   0  0  0  0  0  0  0  0  0  0  0  0
   -1.8813    0.4642   -0.0319 N   0  0  0  0  0  0  0  0  0  0  0  0
   -1.2888    1.7073   -0.0776 C   0  0  0  0  0  0  0  0  0  0  0  0
   -0.0169    1.9621   -0.0790 N   0  0  0  0  0  0  0  0  0  0  0  0
    0.7792    0.8095   -0.0315 C   0  0  0  0  0  0  0  0  0  0  0  0
    2.1838    0.6930   -0.0322 C   0  0  0  0  0  0  0  0  0  0  0  0
    3.3668    1.9694   -0.1576 S   0  0  0  0  0  0  0  0  0  0  0  0
    3.7006    2.3808    1.5460 C   0  0  0  0  0  0  0  0  0  0  0  0
    4.9829    2.1894    2.0759 C   0  0  0  0  0  0  0  0  0  0  0  0
    5.2757    2.5848    3.3853 C   0  0  0  0  0  0  0  0  0  0  0  0
    4.2903    3.1809    4.1706 C   0  0  0  0  0  0  0  0  0  0  0  0
    3.0129    3.3787    3.6489 C   0  0  0  0  0  0  0  0  0  0  0  0
    2.7199    2.9817    2.3415 C   0  0  0  0  0  0  0  0  0  0  0  0
    2.4660   -0.6599    0.0026 C   0  0  0  0  0  0  0  0  0  0  0  0
    1.2740   -1.3483    0.0307 N   0  0  0  0  0  0  0  0  0  0  0  0
    0.2422   -0.4517    0.0098 C   0  0  0  0  0  0  0  0  0  0  0  0
   -2.8861    0.3671   -0.0350 H   0  0  0  0  0  0  0  0  0  0  0  0
   -2.0221    2.5301   -0.1142 H   0  0  0  0  0  0  0  0  0  0  0  0
    5.7690    1.7444    1.4705 H   0  0  0  0  0  0  0  0  0  0  0  0
    6.2755    2.4397    3.7876 H   0  0  0  0  0  0  0  0  0  0  0  0
    4.5193    3.4998    5.1843 H   0  0  0  0  0  0  0  0  0  0  0  0
    2.2455    3.8546    4.2534 H   0  0  0  0  0  0  0  0  0  0  0  0
    1.7255    3.1612    1.9402 H   0  0  0  0  0  0  0  0  0  0  0  0
    3.4069   -1.1927   -0.0064 H   0  0  0  0  0  0  0  0  0  0  0  0
    1.1652   -2.3554    0.0459 H   0  0  0  0  0  0  0  0  0  0  0  0
  1  2  2  0  0  0  0
  2  3  1  0  0  0  0
  2 17  1  0  0  0  0
  3  4  1  0  0  0  0
  3 18  1  0  0  0  0
  4  5  2  0  0  0  0
  4 19  1  0  0  0  0
  5  6  1  0  0  0  0
  6  7  1  0  0  0  0
  6 17  2  0  0  0  0
  7  8  1  0  0  0  0
  7 15  2  0  0  0  0
  8  9  1  0  0  0  0
  9 10  1  0  0  0  0
  9 14  2  0  0  0  0
 10 11  2  0  0  0  0
 10 20  1  0  0  0  0
 11 12  1  0  0  0  0
 11 21  1  0  0  0  0
 12 13  2  0  0  0  0
 12 22  1  0  0  0  0
 13 14  1  0  0  0  0
 13 23  1  0  0  0  0
 14 24  1  0  0  0  0
 15 16  1  0  0  0  0
 15 25  1  0  0  0  0
 16 17  1  0  0  0  0
 16 26  1  0  0  0  0
M  END
$$$$
CHEMBL5418557
 OpenBabel05022513383D

 35 35  0  0  0  0  0  0  0  0999 V2000
    7.9270    3.0507    4.6448 O   0  0  0  0  0  0  0  0  0  0  0  0
    6.8990    2.4763    4.3099 C   0  0  0  0  0  0  0  0  0  0  0  0
    6.2202    1.5987    5.1373 N   0  0  0  0  0  0  0  0  0  0  0  0
    5.0458    0.9857    4.7766 C   0  0  0  0  0  0  0  0  0  0  0  0
    4.3868    1.1092    3.6520 N   0  0  0  0  0  0  0  0  0  0  0  0
    5.0489    1.9766    2.7501 C   0  0  0  0  0  0  0  0  0  0  0  0
    4.6818    2.3660    1.4423 C   0  0  0  0  0  0  0  0  0  0  0  0
    3.2650    1.9219    0.5222 S   0  0  0  0  0  0  0  0  0  0  0  0
    2.5030    3.5385    0.2715 C   0  0  0  0  0  0  0  0  0  0  0  0
    1.6612    3.9807    1.3122 C   0  0  0  0  0  0  0  0  0  0  0  0
    1.0053    5.2064    1.2231 C   0  0  0  0  0  0  0  0  0  0  0  0
   -0.1407    5.7611    2.6186 Br  0  0  0  0  0  0  0  0  0  0  0  0
    1.1901    6.0197    0.1178 C   0  0  0  0  0  0  0  0  0  0  0  0
    2.0294    5.5953   -0.9109 C   0  0  0  0  0  0  0  0  0  0  0  0
    2.6753    4.3426   -0.8797 C   0  0  0  0  0  0  0  0  0  0  0  0
    3.5353    3.9776   -2.0246 C   0  0  0  0  0  0  0  0  0  0  0  0
    3.3476    4.4127   -3.2896 C   0  0  0  0  0  0  0  0  0  0  0  0
    4.3078    4.0538   -4.8056 P   0  0  0  0  0  0  0  0  0  0  0  0
    5.3842    3.3459   -3.9100 O   0  0  0  0  0  0  0  0  0  0  0  0
    3.2040    2.9954   -5.1367 O   0  5  0  0  0  0  0  0  0  0  0  0
    5.2155    3.7145   -6.2387 O   0  5  0  0  0  0  0  0  0  0  0  0
    5.6866    3.1947    1.0007 C   0  0  0  0  0  0  0  0  0  0  0  0
    6.6212    3.3413    1.9785 N   0  0  0  0  0  0  0  0  0  0  0  0
    6.2401    2.6185    3.0533 C   0  0  0  0  0  0  0  0  0  0  0  0
    2.3609    0.2486    2.7683 Na  0  3  0  0  0  0  0  0  0  0  0  0
    4.4822    1.6404   -4.4598 Na  0  3  0  0  0  0  0  0  0  0  0  0
    6.6417    1.4598    6.0436 H   0  0  0  0  0  0  0  0  0  0  0  0
    4.6611    0.3236    5.5700 H   0  0  0  0  0  0  0  0  0  0  0  0
    1.5136    3.3757    2.1997 H   0  0  0  0  0  0  0  0  0  0  0  0
    0.6947    6.9828    0.0321 H   0  0  0  0  0  0  0  0  0  0  0  0
    2.1762    6.2677   -1.7548 H   0  0  0  0  0  0  0  0  0  0  0  0
    4.3817    3.3281   -1.8337 H   0  0  0  0  0  0  0  0  0  0  0  0
    2.5003    5.0347   -3.5447 H   0  0  0  0  0  0  0  0  0  0  0  0
    5.8354    3.6808    0.0258 H   0  0  0  0  0  0  0  0  0  0  0  0
    7.4663    3.9085    1.9169 H   0  0  0  0  0  0  0  0  0  0  0  0
  1  2  2  0  0  0  0
  2  3  1  0  0  0  0
  2 24  1  0  0  0  0
  3  4  1  0  0  0  0
  3 27  1  0  0  0  0
  4  5  2  0  0  0  0
  4 28  1  0  0  0  0
  5  6  1  0  0  0  0
  6  7  1  0  0  0  0
  6 24  2  0  0  0  0
  7  8  1  0  0  0  0
  7 22  2  0  0  0  0
  8  9  1  0  0  0  0
  9 10  1  0  0  0  0
  9 15  2  0  0  0  0
 10 11  2  0  0  0  0
 10 29  1  0  0  0  0
 11 12  1  0  0  0  0
 11 13  1  0  0  0  0
 13 14  2  0  0  0  0
 13 30  1  0  0  0  0
 14 15  1  0  0  0  0
 14 31  1  0  0  0  0
 15 16  1  0  0  0  0
 16 17  2  0  0  0  0
 16 32  1  0  0  0  0
 17 18  1  0  0  0  0
 17 33  1  0  0  0  0
 18 19  2  0  0  0  0
 18 20  1  0  0  0  0
 18 21  1  0  0  0  0
 22 23  1  0  0  0  0
 22 34  1  0  0  0  0
 23 24  1  0  0  0  0
 23 35  1  0  0  0  0
M  CHG  4  20  -1  21  -1  25   1  26   1
M  END
$$$$
CHEMBL5435723
 OpenBabel05022513433D

 49 50  0  0  0  0  0  0  0  0999 V2000
   -1.3940   -2.2225   -0.7468 O   0  0  0  0  0  0  0  0  0  0  0  0
   -0.9849   -1.1910   -0.2687 C   0  0  0  0  0  0  0  0  0  0  0  0
   -1.7026   -0.4012    0.5897 N   0  0  0  0  0  0  0  0  0  0  0  0
   -1.1422    0.6247    1.3161 C   0  0  0  0  0  0  0  0  0  0  0  0
    0.1025    1.0043    1.2814 N   0  0  0  0  0  0  0  0  0  0  0  0
    0.8290    0.4056    0.2384 C   0  0  0  0  0  0  0  0  0  0  0  0
    2.1317    0.6830   -0.2222 C   0  0  0  0  0  0  0  0  0  0  0  0
    3.2889    1.8592    0.3421 S   0  0  0  0  0  0  0  0  0  0  0  0
    2.4904    3.4533    0.1579 C   0  0  0  0  0  0  0  0  0  0  0  0
    1.7509    3.9136    1.2768 C   0  0  0  0  0  0  0  0  0  0  0  0
    1.1964    5.1895    1.3097 C   0  0  0  0  0  0  0  0  0  0  0  0
    0.5577    5.5563    2.4530 O   0  0  0  0  0  0  0  0  0  0  0  0
    0.3097    6.9575    2.5626 C   0  0  0  0  0  0  0  0  0  0  0  0
   -0.0642    7.3431    3.9580 C   0  0  0  0  0  0  0  0  0  0  0  0
    0.4640    8.5334    4.5060 C   0  0  0  0  0  0  0  0  0  0  0  0
    1.3277    9.2531    3.7852 F   0  0  0  0  0  0  0  0  0  0  0  0
    0.1064    8.9405    5.7760 C   0  0  0  0  0  0  0  0  0  0  0  0
    0.6222   10.0601    6.2763 F   0  0  0  0  0  0  0  0  0  0  0  0
   -0.7895    8.2029    6.5196 C   0  0  0  0  0  0  0  0  0  0  0  0
   -1.1371    8.6120    7.7559 F   0  0  0  0  0  0  0  0  0  0  0  0
   -1.3382    7.0379    5.9907 C   0  0  0  0  0  0  0  0  0  0  0  0
   -2.2107    6.3187    6.7119 F   0  0  0  0  0  0  0  0  0  0  0  0
   -0.9860    6.6194    4.7111 C   0  0  0  0  0  0  0  0  0  0  0  0
   -1.5482    5.5151    4.2144 F   0  0  0  0  0  0  0  0  0  0  0  0
    1.3701    6.0329    0.2147 C   0  0  0  0  0  0  0  0  0  0  0  0
    2.1399    5.6061   -0.8729 C   0  0  0  0  0  0  0  0  0  0  0  0
    2.6748    4.3252   -0.9387 C   0  0  0  0  0  0  0  0  0  0  0  0
    3.4376    4.0034   -2.1601 C   0  0  0  0  0  0  0  0  0  0  0  0
    3.0723    4.5428   -3.3538 C   0  0  0  0  0  0  0  0  0  0  0  0
    3.8616    4.2792   -4.9837 P   0  0  0  0  0  0  0  0  0  0  0  0
    4.1698    2.7992   -4.5637 O   0  0  0  0  0  0  0  0  0  0  0  0
    2.4305    4.2899   -5.6142 O   0  5  0  0  0  0  0  0  0  0  0  0
    4.6078    4.0300   -6.5244 O   0  5  0  0  0  0  0  0  0  0  0  0
    2.4190   -0.2901   -1.1598 C   0  0  0  0  0  0  0  0  0  0  0  0
    1.3124   -1.0908   -1.3224 N   0  0  0  0  0  0  0  0  0  0  0  0
    0.3357   -0.6640   -0.4570 C   0  0  0  0  0  0  0  0  0  0  0  0
    2.8125    2.3478   -5.9799 Na  0  3  0  0  0  0  0  0  0  0  0  0
    1.6820   -0.1197    2.7658 Na  0  3  0  0  0  0  0  0  0  0  0  0
   -2.6622   -0.6831    0.7343 H   0  0  0  0  0  0  0  0  0  0  0  0
   -1.8558    1.1004    2.0124 H   0  0  0  0  0  0  0  0  0  0  0  0
    1.6265    3.2752    2.1467 H   0  0  0  0  0  0  0  0  0  0  0  0
   -0.5021    7.2564    1.8894 H   0  0  0  0  0  0  0  0  0  0  0  0
    1.2280    7.4991    2.3006 H   0  0  0  0  0  0  0  0  0  0  0  0
    0.9557    7.0352    0.1570 H   0  0  0  0  0  0  0  0  0  0  0  0
    2.2963    6.3475   -1.6671 H   0  0  0  0  0  0  0  0  0  0  0  0
    4.2775    3.3233   -2.1243 H   0  0  0  0  0  0  0  0  0  0  0  0
    2.2039    5.1812   -3.4522 H   0  0  0  0  0  0  0  0  0  0  0  0
    3.3087   -0.4632   -1.7551 H   0  0  0  0  0  0  0  0  0  0  0  0
    1.2243   -1.8625   -1.9774 H   0  0  0  0  0  0  0  0  0  0  0  0
  1  2  2  0  0  0  0
  2  3  1  0  0  0  0
  2 36  1  0  0  0  0
  3  4  1  0  0  0  0
  3 39  1  0  0  0  0
  4  5  2  0  0  0  0
  4 40  1  0  0  0  0
  5  6  1  0  0  0  0
  6  7  1  0  0  0  0
  6 36  2  0  0  0  0
  7  8  1  0  0  0  0
  7 34  2  0  0  0  0
  8  9  1  0  0  0  0
  9 10  1  0  0  0  0
  9 27  2  0  0  0  0
 10 11  2  0  0  0  0
 10 41  1  0  0  0  0
 11 12  1  0  0  0  0
 11 25  1  0  0  0  0
 12 13  1  0  0  0  0
 13 14  1  0  0  0  0
 13 42  1  0  0  0  0
 13 43  1  0  0  0  0
 14 15  1  0  0  0  0
 14 23  2  0  0  0  0
 15 16  1  0  0  0  0
 15 17  2  0  0  0  0
 17 18  1  0  0  0  0
 17 19  1  0  0  0  0
 19 20  1  0  0  0  0
 19 21  2  0  0  0  0
 21 22  1  0  0  0  0
 21 23  1  0  0  0  0
 23 24  1  0  0  0  0
 25 26  2  0  0  0  0
 25 44  1  0  0  0  0
 26 27  1  0  0  0  0
 26 45  1  0  0  0  0
 27 28  1  0  0  0  0
 28 29  2  0  0  0  0
 28 46  1  0  0  0  0
 29 30  1  0  0  0  0
 29 47  1  0  0  0  0
 30 31  2  0  0  0  0
 30 32  1  0  0  0  0
 30 33  1  0  0  0  0
 34 35  1  0  0  0  0
 34 48  1  0  0  0  0
 35 36  1  0  0  0  0
 35 49  1  0  0  0  0
M  CHG  4  32  -1  33  -1  37   1  38   1
M  END
$$$$
CHEMBL5408054
 OpenBabel05022513473D

 36 36  0  0  0  0  0  0  0  0999 V2000
   -0.1982   -3.2559   -0.6367 O   0  0  0  0  0  0  0  0  0  0  0  0
    0.5804   -2.6043    0.0433 C   0  0  0  0  0  0  0  0  0  0  0  0
    1.1964   -3.1121    1.1611 N   0  0  0  0  0  0  0  0  0  0  0  0
    1.9725   -2.3514    2.0005 C   0  0  0  0  0  0  0  0  0  0  0  0
    2.2626   -1.0869    1.8594 N   0  0  0  0  0  0  0  0  0  0  0  0
    1.7872   -0.5483    0.6347 C   0  0  0  0  0  0  0  0  0  0  0  0
    2.0385    0.7205    0.0545 C   0  0  0  0  0  0  0  0  0  0  0  0
    3.1783    1.9243    0.6181 S   0  0  0  0  0  0  0  0  0  0  0  0
    2.4204    3.5199    0.2664 C   0  0  0  0  0  0  0  0  0  0  0  0
    1.5875    4.0415    1.2697 C   0  0  0  0  0  0  0  0  0  0  0  0
    0.9864    5.2939    1.1315 C   0  0  0  0  0  0  0  0  0  0  0  0
    1.2226    6.0426   -0.0122 C   0  0  0  0  0  0  0  0  0  0  0  0
    0.6581    7.2700   -0.1823 O   0  0  0  0  0  0  0  0  0  0  0  0
    2.0532    5.5620   -1.0150 C   0  0  0  0  0  0  0  0  0  0  0  0
    2.6723    4.3066   -0.8811 C   0  0  0  0  0  0  0  0  0  0  0  0
    3.5196    3.8507   -1.9764 C   0  0  0  0  0  0  0  0  0  0  0  0
    2.9648    3.4404   -3.1251 C   0  0  0  0  0  0  0  0  0  0  0  0
    3.8557    2.4591   -4.3252 P   0  0  0  0  0  0  0  0  0  0  0  0
    4.8439    1.5697   -3.5479 O   0  0  0  0  0  0  0  0  0  0  0  0
    2.8450    1.4427   -4.8671 O   0  5  0  0  0  0  0  0  0  0  0  0
    4.5207    3.2959   -5.3948 O   0  5  0  0  0  0  0  0  0  0  0  0
    1.2593    0.7704   -1.0817 C   0  0  0  0  0  0  0  0  0  0  0  0
    0.6094   -0.4342   -1.2266 N   0  0  0  0  0  0  0  0  0  0  0  0
    0.9559   -1.2510   -0.1884 C   0  0  0  0  0  0  0  0  0  0  0  0
    1.3517    0.7626    2.9973 Na  0  3  0  0  0  0  0  0  0  0  0  0
    3.8278   -0.0427   -4.0260 Na  0  3  0  0  0  0  0  0  0  0  0  0
    0.9988   -4.0839    1.3702 H   0  0  0  0  0  0  0  0  0  0  0  0
    2.3426   -2.9081    2.8797 H   0  0  0  0  0  0  0  0  0  0  0  0
    1.4154    3.4921    2.1851 H   0  0  0  0  0  0  0  0  0  0  0  0
    0.3485    5.6725    1.9226 H   0  0  0  0  0  0  0  0  0  0  0  0
    0.2095    7.5373    0.6345 H   0  0  0  0  0  0  0  0  0  0  0  0
    2.2262    6.1648   -1.9065 H   0  0  0  0  0  0  0  0  0  0  0  0
    4.5892    3.7366   -1.8214 H   0  0  0  0  0  0  0  0  0  0  0  0
    1.9045    3.5084   -3.3199 H   0  0  0  0  0  0  0  0  0  0  0  0
    1.1502    1.5322   -1.8464 H   0  0  0  0  0  0  0  0  0  0  0  0
    0.0088   -0.6901   -2.0075 H   0  0  0  0  0  0  0  0  0  0  0  0
  1  2  2  0  0  0  0
  2  3  1  0  0  0  0
  2 24  1  0  0  0  0
  3  4  1  0  0  0  0
  3 27  1  0  0  0  0
  4  5  2  0  0  0  0
  4 28  1  0  0  0  0
  5  6  1  0  0  0  0
  6  7  1  0  0  0  0
  6 24  2  0  0  0  0
  7  8  1  0  0  0  0
  7 22  2  0  0  0  0
  8  9  1  0  0  0  0
  9 10  1  0  0  0  0
  9 15  2  0  0  0  0
 10 11  2  0  0  0  0
 10 29  1  0  0  0  0
 11 12  1  0  0  0  0
 11 30  1  0  0  0  0
 12 13  1  0  0  0  0
 12 14  2  0  0  0  0
 13 31  1  0  0  0  0
 14 15  1  0  0  0  0
 14 32  1  0  0  0  0
 15 16  1  0  0  0  0
 16 17  2  0  0  0  0
 16 33  1  0  0  0  0
 17 18  1  0  0  0  0
 17 34  1  0  0  0  0
 18 19  2  0  0  0  0
 18 20  1  0  0  0  0
 18 21  1  0  0  0  0
 22 23  1  0  0  0  0
 22 35  1  0  0  0  0
 23 24  1  0  0  0  0
 23 36  1  0  0  0  0
M  CHG  4  20  -1  21  -1  25   1  26   1
M  END
$$$$
CHEMBL5418951
 OpenBabel05022513493D

 49 50  0  0  0  0  0  0  0  0999 V2000
   -1.5731   -1.9369   -0.7725 O   0  0  0  0  0  0  0  0  0  0  0  0
   -1.1190   -0.8301   -0.5502 C   0  0  0  0  0  0  0  0  0  0  0  0
   -1.8962    0.2804   -0.3153 N   0  0  0  0  0  0  0  0  0  0  0  0
   -1.3725    1.4399    0.2195 C   0  0  0  0  0  0  0  0  0  0  0  0
   -0.1320    1.6682    0.5043 N   0  0  0  0  0  0  0  0  0  0  0  0
    0.7376    0.6814    0.0194 C   0  0  0  0  0  0  0  0  0  0  0  0
    2.1412    0.6751   -0.0415 C   0  0  0  0  0  0  0  0  0  0  0  0
    3.3055    1.8959    0.4007 S   0  0  0  0  0  0  0  0  0  0  0  0
    2.4943    3.4799    0.1900 C   0  0  0  0  0  0  0  0  0  0  0  0
    1.7666    3.9719    1.2954 C   0  0  0  0  0  0  0  0  0  0  0  0
    1.1937    5.2474    1.2907 C   0  0  0  0  0  0  0  0  0  0  0  0
    1.3897    6.0794    0.2022 C   0  0  0  0  0  0  0  0  0  0  0  0
    0.9165    7.3645    0.2958 O   0  0  0  0  0  0  0  0  0  0  0  0
    1.5319    8.2660   -0.6245 C   0  0  0  0  0  0  0  0  0  0  0  0
    1.3289    9.6808   -0.1808 C   0  0  0  0  0  0  0  0  0  0  0  0
    2.1347   10.2263    0.8157 C   0  0  0  0  0  0  0  0  0  0  0  0
    3.0658    9.4698    1.4101 F   0  0  0  0  0  0  0  0  0  0  0  0
    2.0312   11.5602    1.1733 C   0  0  0  0  0  0  0  0  0  0  0  0
    2.8031   12.0786    2.1114 F   0  0  0  0  0  0  0  0  0  0  0  0
    1.0714   12.3572    0.5411 C   0  0  0  0  0  0  0  0  0  0  0  0
    0.9641   13.6599    0.8673 F   0  0  0  0  0  0  0  0  0  0  0  0
    0.2479   11.8315   -0.4315 C   0  0  0  0  0  0  0  0  0  0  0  0
   -0.6568   12.5930   -1.0371 F   0  0  0  0  0  0  0  0  0  0  0  0
    0.3663   10.4922   -0.7938 C   0  0  0  0  0  0  0  0  0  0  0  0
   -0.4222    9.9874   -1.7465 F   0  0  0  0  0  0  0  0  0  0  0  0
    2.0794    5.5874   -0.9038 C   0  0  0  0  0  0  0  0  0  0  0  0
    2.6371    4.2975   -0.9476 C   0  0  0  0  0  0  0  0  0  0  0  0
    3.4081    3.9666   -2.1655 C   0  0  0  0  0  0  0  0  0  0  0  0
    3.0907    4.4629   -3.3808 C   0  0  0  0  0  0  0  0  0  0  0  0
    3.9530    4.1756   -4.9692 P   0  0  0  0  0  0  0  0  0  0  0  0
    4.2034    2.6984   -4.5021 O   0  0  0  0  0  0  0  0  0  0  0  0
    2.5407    4.2109   -5.6436 O   0  5  0  0  0  0  0  0  0  0  0  0
    4.7681    3.9041   -6.4708 O   0  5  0  0  0  0  0  0  0  0  0  0
    2.4926   -0.6034   -0.4359 C   0  0  0  0  0  0  0  0  0  0  0  0
    1.3476   -1.3165   -0.7124 N   0  0  0  0  0  0  0  0  0  0  0  0
    0.2712   -0.5312   -0.4178 C   0  0  0  0  0  0  0  0  0  0  0  0
    2.6489    2.2185   -5.6497 Na  0  3  0  0  0  0  0  0  0  0  0  0
    1.2807    0.1012    2.6429 Na  0  3  0  0  0  0  0  0  0  0  0  0
   -2.8837    0.1667   -0.4506 H   0  0  0  0  0  0  0  0  0  0  0  0
   -2.1541    2.1980    0.4444 H   0  0  0  0  0  0  0  0  0  0  0  0
    1.6511    3.3702    2.1906 H   0  0  0  0  0  0  0  0  0  0  0  0
    0.6407    5.6073    2.1523 H   0  0  0  0  0  0  0  0  0  0  0  0
    1.1075    8.1217   -1.6296 H   0  0  0  0  0  0  0  0  0  0  0  0
    2.6198    8.1055   -0.6823 H   0  0  0  0  0  0  0  0  0  0  0  0
    2.2305    6.2303   -1.7655 H   0  0  0  0  0  0  0  0  0  0  0  0
    4.2703    3.3105   -2.0804 H   0  0  0  0  0  0  0  0  0  0  0  0
    2.2223    5.0924   -3.5251 H   0  0  0  0  0  0  0  0  0  0  0  0
    3.4661   -1.0516   -0.6069 H   0  0  0  0  0  0  0  0  0  0  0  0
    1.3035   -2.2550   -1.0951 H   0  0  0  0  0  0  0  0  0  0  0  0
  1  2  2  0  0  0  0
  2  3  1  0  0  0  0
  2 36  1  0  0  0  0
  3  4  1  0  0  0  0
  3 39  1  0  0  0  0
  4  5  2  0  0  0  0
  4 40  1  0  0  0  0
  5  6  1  0  0  0  0
  6  7  1  0  0  0  0
  6 36  2  0  0  0  0
  7  8  1  0  0  0  0
  7 34  2  0  0  0  0
  8  9  1  0  0  0  0
  9 10  1  0  0  0  0
  9 27  2  0  0  0  0
 10 11  2  0  0  0  0
 10 41  1  0  0  0  0
 11 12  1  0  0  0  0
 11 42  1  0  0  0  0
 12 13  1  0  0  0  0
 12 26  2  0  0  0  0
 13 14  1  0  0  0  0
 14 15  1  0  0  0  0
 14 43  1  0  0  0  0
 14 44  1  0  0  0  0
 15 16  1  0  0  0  0
 15 24  2  0  0  0  0
 16 17  1  0  0  0  0
 16 18  2  0  0  0  0
 18 19  1  0  0  0  0
 18 20  1  0  0  0  0
 20 21  1  0  0  0  0
 20 22  2  0  0  0  0
 22 23  1  0  0  0  0
 22 24  1  0  0  0  0
 24 25  1  0  0  0  0
 26 27  1  0  0  0  0
 26 45  1  0  0  0  0
 27 28  1  0  0  0  0
 28 29  2  0  0  0  0
 28 46  1  0  0  0  0
 29 30  1  0  0  0  0
 29 47  1  0  0  0  0
 30 31  2  0  0  0  0
 30 32  1  0  0  0  0
 30 33  1  0  0  0  0
 34 35  1  0  0  0  0
 34 48  1  0  0  0  0
 35 36  1  0  0  0  0
 35 49  1  0  0  0  0
M  CHG  4  32  -1  33  -1  37   1  38   1
M  END
$$$$
CHEMBL5439419
 OpenBabel05022513503D

 39 39  0  0  0  0  0  0  0  0999 V2000
    3.3262    0.9331    0.6066 C   0  0  0  0  0  0  0  0  0  0  0  0
    2.5754    0.0909   -0.2828 O   0  0  0  0  0  0  0  0  0  0  0  0
    3.3336   -0.9030   -0.8686 C   0  0  0  0  0  0  0  0  0  0  0  0
    3.0480   -1.0896   -2.2307 C   0  0  0  0  0  0  0  0  0  0  0  0
    3.7546   -2.0228   -2.9810 C   0  0  0  0  0  0  0  0  0  0  0  0
    4.8017   -2.7207   -2.3887 C   0  0  0  0  0  0  0  0  0  0  0  0
    5.1189   -2.5336   -1.0313 C   0  0  0  0  0  0  0  0  0  0  0  0
    6.5789   -3.3836   -0.4295 S   0  0  0  0  0  0  0  0  0  0  0  0
    7.8410   -2.1890   -0.6794 C   0  0  0  0  0  0  0  0  0  0  0  0
    8.5974   -1.6316    0.3411 C   0  0  0  0  0  0  0  0  0  0  0  0
    9.5379   -0.8017   -0.2218 N   0  0  0  0  0  0  0  0  0  0  0  0
    9.4001   -0.8361   -1.5824 C   0  0  0  0  0  0  0  0  0  0  0  0
   10.1883   -0.1646   -2.5667 C   0  0  0  0  0  0  0  0  0  0  0  0
   11.1294    0.5707   -2.3372 O   0  0  0  0  0  0  0  0  0  0  0  0
    9.7506   -0.4579   -3.8396 N   0  0  0  0  0  0  0  0  0  0  0  0
    8.6853   -1.2953   -4.0859 C   0  0  0  0  0  0  0  0  0  0  0  0
    7.9637   -1.9188   -3.2021 N   0  0  0  0  0  0  0  0  0  0  0  0
    8.3508   -1.6624   -1.8893 C   0  0  0  0  0  0  0  0  0  0  0  0
    4.3134   -1.6984   -0.2244 C   0  0  0  0  0  0  0  0  0  0  0  0
    4.4667   -1.6935    1.2467 C   0  0  0  0  0  0  0  0  0  0  0  0
    3.6226   -2.3166    2.0963 C   0  0  0  0  0  0  0  0  0  0  0  0
    3.7506   -2.1554    3.9147 P   0  0  0  0  0  0  0  0  0  0  0  0
    3.6103   -0.6014    3.8056 O   0  0  0  0  0  0  0  0  0  0  0  0
    2.2931   -2.7040    4.0615 O   0  5  0  0  0  0  0  0  0  0  0  0
    3.8716   -2.0031    5.6337 O   0  5  0  0  0  0  0  0  0  0  0  0
    2.2191   -1.0069    5.3867 Na  0  3  0  0  0  0  0  0  0  0  0  0
   -0.9572   -0.6044    0.0581 Na  0  3  0  0  0  0  0  0  0  0  0  0
    2.9396    1.9528    0.5157 H   0  0  0  0  0  0  0  0  0  0  0  0
    4.3979    0.9756    0.3737 H   0  0  0  0  0  0  0  0  0  0  0  0
    3.1544    0.6164    1.6350 H   0  0  0  0  0  0  0  0  0  0  0  0
    2.2894   -0.4839   -2.7166 H   0  0  0  0  0  0  0  0  0  0  0  0
    3.5285   -2.1766   -4.0327 H   0  0  0  0  0  0  0  0  0  0  0  0
    5.3941   -3.4030   -2.9967 H   0  0  0  0  0  0  0  0  0  0  0  0
    8.5556   -1.7693    1.4095 H   0  0  0  0  0  0  0  0  0  0  0  0
   10.2437   -0.2750    0.2811 H   0  0  0  0  0  0  0  0  0  0  0  0
   10.2601   -0.0260   -4.5924 H   0  0  0  0  0  0  0  0  0  0  0  0
    8.4727   -1.4074   -5.1662 H   0  0  0  0  0  0  0  0  0  0  0  0
    5.2670   -1.0809    1.6532 H   0  0  0  0  0  0  0  0  0  0  0  0
    2.8107   -2.9315    1.7350 H   0  0  0  0  0  0  0  0  0  0  0  0
  1  2  1  0  0  0  0
  1 28  1  0  0  0  0
  1 29  1  0  0  0  0
  1 30  1  0  0  0  0
  2  3  1  0  0  0  0
  3  4  1  0  0  0  0
  3 19  2  0  0  0  0
  4  5  2  0  0  0  0
  4 31  1  0  0  0  0
  5  6  1  0  0  0  0
  5 32  1  0  0  0  0
  6  7  2  0  0  0  0
  6 33  1  0  0  0  0
  7  8  1  0  0  0  0
  7 19  1  0  0  0  0
  8  9  1  0  0  0  0
  9 10  2  0  0  0  0
  9 18  1  0  0  0  0
 10 11  1  0  0  0  0
 10 34  1  0  0  0  0
 11 12  1  0  0  0  0
 11 35  1  0  0  0  0
 12 13  1  0  0  0  0
 12 18  2  0  0  0  0
 13 14  2  0  0  0  0
 13 15  1  0  0  0  0
 15 16  1  0  0  0  0
 15 36  1  0  0  0  0
 16 17  2  0  0  0  0
 16 37  1  0  0  0  0
 17 18  1  0  0  0  0
 19 20  1  0  0  0  0
 20 21  2  0  0  0  0
 20 38  1  0  0  0  0
 21 22  1  0  0  0  0
 21 39  1  0  0  0  0
 22 23  2  0  0  0  0
 22 24  1  0  0  0  0
 22 25  1  0  0  0  0
M  CHG  4  24  -1  25  -1  26   1  27   1
M  END
$$$$
CHEMBL5419057
 OpenBabel05022513523D

 35 35  0  0  0  0  0  0  0  0999 V2000
   -0.1085   -3.2142   -0.7490 O   0  0  0  0  0  0  0  0  0  0  0  0
    0.6664   -2.5931   -0.0646 C   0  0  0  0  0  0  0  0  0  0  0  0
    1.2412   -3.0889    1.0878 N   0  0  0  0  0  0  0  0  0  0  0  0
    2.0083   -2.3277    1.9404 C   0  0  0  0  0  0  0  0  0  0  0  0
    2.3177   -1.0664    1.7935 N   0  0  0  0  0  0  0  0  0  0  0  0
    1.8822   -0.5377    0.5607 C   0  0  0  0  0  0  0  0  0  0  0  0
    2.1516    0.7232   -0.0258 C   0  0  0  0  0  0  0  0  0  0  0  0
    3.2546    1.9611    0.5602 S   0  0  0  0  0  0  0  0  0  0  0  0
    2.4364    3.5378    0.2232 C   0  0  0  0  0  0  0  0  0  0  0  0
    1.6087    4.0201    1.2608 C   0  0  0  0  0  0  0  0  0  0  0  0
    0.9881    5.2698    1.1807 C   0  0  0  0  0  0  0  0  0  0  0  0
    1.2136    6.0711    0.0747 C   0  0  0  0  0  0  0  0  0  0  0  0
    0.4125    7.7780   -0.0354 Br  0  0  0  0  0  0  0  0  0  0  0  0
    2.0436    5.6308   -0.9483 C   0  0  0  0  0  0  0  0  0  0  0  0
    2.6512    4.3553   -0.9158 C   0  0  0  0  0  0  0  0  0  0  0  0
    3.5332    4.0098   -2.0511 C   0  0  0  0  0  0  0  0  0  0  0  0
    3.3599    4.4688   -3.3123 C   0  0  0  0  0  0  0  0  0  0  0  0
    4.3532    4.1235   -4.8099 P   0  0  0  0  0  0  0  0  0  0  0  0
    5.4396    3.4617   -3.8982 O   0  0  0  0  0  0  0  0  0  0  0  0
    3.2859    3.0210   -5.1369 O   0  5  0  0  0  0  0  0  0  0  0  0
    5.2923    3.7970   -6.2257 O   0  5  0  0  0  0  0  0  0  0  0  0
    1.3976    0.7887   -1.1721 C   0  0  0  0  0  0  0  0  0  0  0  0
    0.7486   -0.4176   -1.3418 N   0  0  0  0  0  0  0  0  0  0  0  0
    1.0610   -1.2352   -0.2881 C   0  0  0  0  0  0  0  0  0  0  0  0
    4.5446    1.6796   -4.4828 Na  0  3  0  0  0  0  0  0  0  0  0  0
    1.6009    0.7925    2.9871 Na  0  3  0  0  0  0  0  0  0  0  0  0
    0.9981   -4.0469    1.3080 H   0  0  0  0  0  0  0  0  0  0  0  0
    2.3262   -2.8927    2.8386 H   0  0  0  0  0  0  0  0  0  0  0  0
    1.4584    3.4496    2.1680 H   0  0  0  0  0  0  0  0  0  0  0  0
    0.3605    5.6229    1.9939 H   0  0  0  0  0  0  0  0  0  0  0  0
    2.2432    6.3044   -1.7795 H   0  0  0  0  0  0  0  0  0  0  0  0
    4.3901    3.3754   -1.8447 H   0  0  0  0  0  0  0  0  0  0  0  0
    2.5107    5.0838   -3.5762 H   0  0  0  0  0  0  0  0  0  0  0  0
    1.2915    1.5655   -1.9289 H   0  0  0  0  0  0  0  0  0  0  0  0
    0.1629   -0.6705   -2.1340 H   0  0  0  0  0  0  0  0  0  0  0  0
  1  2  2  0  0  0  0
  2  3  1  0  0  0  0
  2 24  1  0  0  0  0
  3  4  1  0  0  0  0
  3 27  1  0  0  0  0
  4  5  2  0  0  0  0
  4 28  1  0  0  0  0
  5  6  1  0  0  0  0
  6  7  1  0  0  0  0
  6 24  2  0  0  0  0
  7  8  1  0  0  0  0
  7 22  2  0  0  0  0
  8  9  1  0  0  0  0
  9 10  1  0  0  0  0
  9 15  2  0  0  0  0
 10 11  2  0  0  0  0
 10 29  1  0  0  0  0
 11 12  1  0  0  0  0
 11 30  1  0  0  0  0
 12 13  1  0  0  0  0
 12 14  2  0  0  0  0
 14 15  1  0  0  0  0
 14 31  1  0  0  0  0
 15 16  1  0  0  0  0
 16 17  2  0  0  0  0
 16 32  1  0  0  0  0
 17 18  1  0  0  0  0
 17 33  1  0  0  0  0
 18 19  2  0  0  0  0
 18 20  1  0  0  0  0
 18 21  1  0  0  0  0
 22 23  1  0  0  0  0
 22 34  1  0  0  0  0
 23 24  1  0  0  0  0
 23 35  1  0  0  0  0
M  CHG  4  20  -1  21  -1  25   1  26   1
M  END
$$$$
CHEMBL5403757
 OpenBabel05022513533D

 36 36  0  0  0  0  0  0  0  0999 V2000
   -1.0810   -2.3572   -1.4013 O   0  0  0  0  0  0  0  0  0  0  0  0
   -0.7194   -1.3731   -0.7659 C   0  0  0  0  0  0  0  0  0  0  0  0
   -1.4875   -0.7921    0.2166 N   0  0  0  0  0  0  0  0  0  0  0  0
   -1.0081    0.2010    1.0441 C   0  0  0  0  0  0  0  0  0  0  0  0
    0.1823    0.7358    1.0136 N   0  0  0  0  0  0  0  0  0  0  0  0
    0.9338    0.3264   -0.0930 C   0  0  0  0  0  0  0  0  0  0  0  0
    2.2006    0.7660   -0.5383 C   0  0  0  0  0  0  0  0  0  0  0  0
    3.2565    1.9782    0.1501 S   0  0  0  0  0  0  0  0  0  0  0  0
    2.3742    3.5455   -0.0022 C   0  0  0  0  0  0  0  0  0  0  0  0
    1.5843    3.8962    1.1123 C   0  0  0  0  0  0  0  0  0  0  0  0
    0.9396    5.1259    1.1861 C   0  0  0  0  0  0  0  0  0  0  0  0
    1.0774    6.0342    0.1453 C   0  0  0  0  0  0  0  0  0  0  0  0
    1.8757    5.7173   -0.9569 C   0  0  0  0  0  0  0  0  0  0  0  0
    2.0301    6.6764   -1.9239 O   0  0  0  0  0  0  0  0  0  0  0  0
    2.5454    4.4777   -1.0680 C   0  0  0  0  0  0  0  0  0  0  0  0
    3.4895    4.2081   -2.1823 C   0  0  0  0  0  0  0  0  0  0  0  0
    3.4144    4.6194   -3.4668 C   0  0  0  0  0  0  0  0  0  0  0  0
    4.5313    4.1798   -4.8481 P   0  0  0  0  0  0  0  0  0  0  0  0
    5.3256    3.2381   -3.8724 O   0  0  0  0  0  0  0  0  0  0  0  0
    3.3326    3.3467   -5.4191 O   0  5  0  0  0  0  0  0  0  0  0  0
    5.5872    3.7642   -6.1540 O   0  5  0  0  0  0  0  0  0  0  0  0
    2.5672   -0.0807   -1.5667 C   0  0  0  0  0  0  0  0  0  0  0  0
    1.5259   -0.9571   -1.8072 N   0  0  0  0  0  0  0  0  0  0  0  0
    0.5309   -0.7214   -0.9080 C   0  0  0  0  0  0  0  0  0  0  0  0
    2.0295    0.5023    2.5316 Na  0  3  0  0  0  0  0  0  0  0  0  0
    4.1347    1.7921   -4.5119 Na  0  3  0  0  0  0  0  0  0  0  0  0
   -2.4111   -1.1807    0.3362 H   0  0  0  0  0  0  0  0  0  0  0  0
   -1.7420    0.5067    1.8100 H   0  0  0  0  0  0  0  0  0  0  0  0
    1.4860    3.2272    1.9592 H   0  0  0  0  0  0  0  0  0  0  0  0
    0.3504    5.3905    2.0598 H   0  0  0  0  0  0  0  0  0  0  0  0
    0.5802    6.9965    0.2129 H   0  0  0  0  0  0  0  0  0  0  0  0
    1.6384    7.5156   -1.6415 H   0  0  0  0  0  0  0  0  0  0  0  0
    4.3515    3.6014   -1.9122 H   0  0  0  0  0  0  0  0  0  0  0  0
    2.5868    5.2295   -3.8036 H   0  0  0  0  0  0  0  0  0  0  0  0
    3.4720   -0.1436   -2.1532 H   0  0  0  0  0  0  0  0  0  0  0  0
    1.5018   -1.6729   -2.5258 H   0  0  0  0  0  0  0  0  0  0  0  0
  1  2  2  0  0  0  0
  2  3  1  0  0  0  0
  2 24  1  0  0  0  0
  3  4  1  0  0  0  0
  3 27  1  0  0  0  0
  4  5  2  0  0  0  0
  4 28  1  0  0  0  0
  5  6  1  0  0  0  0
  6  7  1  0  0  0  0
  6 24  2  0  0  0  0
  7  8  1  0  0  0  0
  7 22  2  0  0  0  0
  8  9  1  0  0  0  0
  9 10  1  0  0  0  0
  9 15  2  0  0  0  0
 10 11  2  0  0  0  0
 10 29  1  0  0  0  0
 11 12  1  0  0  0  0
 11 30  1  0  0  0  0
 12 13  2  0  0  0  0
 12 31  1  0  0  0  0
 13 14  1  0  0  0  0
 13 15  1  0  0  0  0
 14 32  1  0  0  0  0
 15 16  1  0  0  0  0
 16 17  2  0  0  0  0
 16 33  1  0  0  0  0
 17 18  1  0  0  0  0
 17 34  1  0  0  0  0
 18 19  2  0  0  0  0
 18 20  1  0  0  0  0
 18 21  1  0  0  0  0
 22 23  1  0  0  0  0
 22 35  1  0  0  0  0
 23 24  1  0  0  0  0
 23 36  1  0  0  0  0
M  CHG  4  20  -1  21  -1  25   1  26   1
M  END
$$$$
CHEMBL5434152
 OpenBabel05022513553D

 46 47  0  0  0  0  0  0  0  0999 V2000
   -1.3231   -2.2530   -0.8199 O   0  0  0  0  0  0  0  0  0  0  0  0
   -0.9092   -1.2528   -0.2501 C   0  0  0  0  0  0  0  0  0  0  0  0
   -1.6255   -0.5629    0.6997 N   0  0  0  0  0  0  0  0  0  0  0  0
   -1.1040    0.4586    1.4459 C   0  0  0  0  0  0  0  0  0  0  0  0
    0.1236    0.9277    1.3628 N   0  0  0  0  0  0  0  0  0  0  0  0
    0.8356    0.3949    0.2801 C   0  0  0  0  0  0  0  0  0  0  0  0
    2.1160    0.7524   -0.2130 C   0  0  0  0  0  0  0  0  0  0  0  0
    3.2615    1.9315    0.3375 S   0  0  0  0  0  0  0  0  0  0  0  0
    2.4381    3.5199    0.1496 C   0  0  0  0  0  0  0  0  0  0  0  0
    1.6436    3.9013    1.2510 C   0  0  0  0  0  0  0  0  0  0  0  0
    0.9794    5.1187    1.2726 C   0  0  0  0  0  0  0  0  0  0  0  0
    1.1737    6.0127    0.2328 C   0  0  0  0  0  0  0  0  0  0  0  0
    2.0786    5.7223   -0.8017 C   0  0  0  0  0  0  0  0  0  0  0  0
    2.4327    6.6858   -1.7298 O   0  0  0  0  0  0  0  0  0  0  0  0
    2.4661    8.0241   -1.4044 C   0  0  0  0  0  0  0  0  0  0  0  0
    2.7988    8.5641   -0.1570 C   0  0  0  0  0  0  0  0  0  0  0  0
    3.1758    7.7822    0.8653 F   0  0  0  0  0  0  0  0  0  0  0  0
    2.6969    9.9349    0.0691 C   0  0  0  0  0  0  0  0  0  0  0  0
    2.9019   10.4228    1.3020 F   0  0  0  0  0  0  0  0  0  0  0  0
    2.3422   10.7909   -0.9616 C   0  0  0  0  0  0  0  0  0  0  0  0
    2.2174   12.1049   -0.7302 F   0  0  0  0  0  0  0  0  0  0  0  0
    2.0977   10.2791   -2.2265 C   0  0  0  0  0  0  0  0  0  0  0  0
    1.7662   11.1056   -3.2281 F   0  0  0  0  0  0  0  0  0  0  0  0
    2.1577    8.9056   -2.4453 C   0  0  0  0  0  0  0  0  0  0  0  0
    1.8670    8.4262   -3.6641 F   0  0  0  0  0  0  0  0  0  0  0  0
    2.6394    4.4225   -0.9334 C   0  0  0  0  0  0  0  0  0  0  0  0
    3.4332    4.0410   -2.1389 C   0  0  0  0  0  0  0  0  0  0  0  0
    3.1847    4.4354   -3.4109 C   0  0  0  0  0  0  0  0  0  0  0  0
    4.0837    4.0096   -4.9469 P   0  0  0  0  0  0  0  0  0  0  0  0
    5.3636    4.0277   -4.0795 O   0  0  0  0  0  0  0  0  0  0  0  0
    3.2346    2.7045   -4.9638 O   0  5  0  0  0  0  0  0  0  0  0  0
    4.9335    3.6070   -6.3990 O   0  5  0  0  0  0  0  0  0  0  0  0
    2.4183   -0.1966   -1.1890 C   0  0  0  0  0  0  0  0  0  0  0  0
    1.3439   -1.0411   -1.3335 N   0  0  0  0  0  0  0  0  0  0  0  0
    0.3765   -0.6681   -0.4500 C   0  0  0  0  0  0  0  0  0  0  0  0
    2.3922    1.5881   -3.8370 Na  0  3  0  0  0  0  0  0  0  0  0  0
    2.0467    0.3043    2.8275 Na  0  3  0  0  0  0  0  0  0  0  0  0
   -2.5691   -0.9053    0.8530 H   0  0  0  0  0  0  0  0  0  0  0  0
   -1.8063    0.8591    2.1915 H   0  0  0  0  0  0  0  0  0  0  0  0
    1.5337    3.2548    2.1139 H   0  0  0  0  0  0  0  0  0  0  0  0
    0.3519    5.3965    2.1151 H   0  0  0  0  0  0  0  0  0  0  0  0
    0.6576    6.9673    0.2733 H   0  0  0  0  0  0  0  0  0  0  0  0
    4.3065    3.4070   -1.9935 H   0  0  0  0  0  0  0  0  0  0  0  0
    2.3555    5.0916   -3.6354 H   0  0  0  0  0  0  0  0  0  0  0  0
    3.3259   -0.3492   -1.7705 H   0  0  0  0  0  0  0  0  0  0  0  0
    1.2860   -1.8281   -1.9740 H   0  0  0  0  0  0  0  0  0  0  0  0
  1  2  2  0  0  0  0
  2  3  1  0  0  0  0
  2 35  1  0  0  0  0
  3  4  1  0  0  0  0
  3 38  1  0  0  0  0
  4  5  2  0  0  0  0
  4 39  1  0  0  0  0
  5  6  1  0  0  0  0
  6  7  1  0  0  0  0
  6 35  2  0  0  0  0
  7  8  1  0  0  0  0
  7 33  2  0  0  0  0
  8  9  1  0  0  0  0
  9 10  1  0  0  0  0
  9 26  2  0  0  0  0
 10 11  2  0  0  0  0
 10 40  1  0  0  0  0
 11 12  1  0  0  0  0
 11 41  1  0  0  0  0
 12 13  2  0  0  0  0
 12 42  1  0  0  0  0
 13 14  1  0  0  0  0
 13 26  1  0  0  0  0
 14 15  1  0  0  0  0
 15 16  1  0  0  0  0
 15 24  2  0  0  0  0
 16 17  1  0  0  0  0
 16 18  2  0  0  0  0
 18 19  1  0  0  0  0
 18 20  1  0  0  0  0
 20 21  1  0  0  0  0
 20 22  2  0  0  0  0
 22 23  1  0  0  0  0
 22 24  1  0  0  0  0
 24 25  1  0  0  0  0
 26 27  1  0  0  0  0
 27 28  2  0  0  0  0
 27 43  1  0  0  0  0
 28 29  1  0  0  0  0
 28 44  1  0  0  0  0
 29 30  2  0  0  0  0
 29 31  1  0  0  0  0
 29 32  1  0  0  0  0
 33 34  1  0  0  0  0
 33 45  1  0  0  0  0
 34 35  1  0  0  0  0
 34 46  1  0  0  0  0
M  CHG  4  31  -1  32  -1  36   1  37   1
M  END
$$$$
CHEMBL5428102
 OpenBabel05022513553D

 35 35  0  0  0  0  0  0  0  0999 V2000
    6.3795    1.4603    6.0243 O   0  0  0  0  0  0  0  0  0  0  0  0
    5.7595    0.9741    5.0903 C   0  0  0  0  0  0  0  0  0  0  0  0
    5.4599   -0.3665    5.0058 N   0  0  0  0  0  0  0  0  0  0  0  0
    4.6453   -0.8917    4.0254 C   0  0  0  0  0  0  0  0  0  0  0  0
    4.0526   -0.2347    3.0671 N   0  0  0  0  0  0  0  0  0  0  0  0
    4.4510    1.1175    3.0214 C   0  0  0  0  0  0  0  0  0  0  0  0
    4.1678    2.0937    2.0457 C   0  0  0  0  0  0  0  0  0  0  0  0
    3.2516    1.8541    0.5854 S   0  0  0  0  0  0  0  0  0  0  0  0
    2.5271    3.4668    0.2686 C   0  0  0  0  0  0  0  0  0  0  0  0
    1.6036    3.9253    1.2263 C   0  0  0  0  0  0  0  0  0  0  0  0
    0.9848    5.1624    1.0887 C   0  0  0  0  0  0  0  0  0  0  0  0
    0.1305    5.5631    2.0397 F   0  0  0  0  0  0  0  0  0  0  0  0
    1.2497    5.9683   -0.0087 C   0  0  0  0  0  0  0  0  0  0  0  0
    2.1656    5.5364   -0.9553 C   0  0  0  0  0  0  0  0  0  0  0  0
    2.8082    4.2911   -0.8396 C   0  0  0  0  0  0  0  0  0  0  0  0
    3.7252    4.0923   -1.8318 O   0  0  0  0  0  0  0  0  0  0  0  0
    3.8818    2.7703   -2.3300 C   0  0  0  0  0  0  0  0  0  0  0  0
    3.8533    2.7831   -4.1850 P   0  0  0  0  0  0  0  0  0  0  0  0
    2.4279    3.1869   -4.5745 O   0  0  0  0  0  0  0  0  0  0  0  0
    4.9681    3.6540   -4.6909 O   0  5  0  0  0  0  0  0  0  0  0  0
    3.9485    1.2970   -4.5534 O   0  5  0  0  0  0  0  0  0  0  0  0
    4.7790    3.2562    2.4613 C   0  0  0  0  0  0  0  0  0  0  0  0
    5.4171    3.0015    3.6580 N   0  0  0  0  0  0  0  0  0  0  0  0
    5.2298    1.6924    3.9854 C   0  0  0  0  0  0  0  0  0  0  0  0
    2.1888    1.4293   -5.4646 Na  0  3  0  0  0  0  0  0  0  0  0  0
    1.8218    0.0456    2.3994 Na  0  3  0  0  0  0  0  0  0  0  0  0
    5.8458   -0.9474    5.7366 H   0  0  0  0  0  0  0  0  0  0  0  0
    4.4938   -1.9781    4.1344 H   0  0  0  0  0  0  0  0  0  0  0  0
    1.3679    3.3387    2.1097 H   0  0  0  0  0  0  0  0  0  0  0  0
    0.7629    6.9297   -0.0974 H   0  0  0  0  0  0  0  0  0  0  0  0
    2.3728    6.1544   -1.8300 H   0  0  0  0  0  0  0  0  0  0  0  0
    3.0331    2.1218   -2.0983 H   0  0  0  0  0  0  0  0  0  0  0  0
    4.8298    2.3449   -1.9923 H   0  0  0  0  0  0  0  0  0  0  0  0
    4.8420    4.2362    2.0017 H   0  0  0  0  0  0  0  0  0  0  0  0
    5.9752    3.6718    4.1793 H   0  0  0  0  0  0  0  0  0  0  0  0
  1  2  2  0  0  0  0
  2  3  1  0  0  0  0
  2 24  1  0  0  0  0
  3  4  1  0  0  0  0
  3 27  1  0  0  0  0
  4  5  2  0  0  0  0
  4 28  1  0  0  0  0
  5  6  1  0  0  0  0
  6  7  1  0  0  0  0
  6 24  2  0  0  0  0
  7  8  1  0  0  0  0
  7 22  2  0  0  0  0
  8  9  1  0  0  0  0
  9 10  1  0  0  0  0
  9 15  2  0  0  0  0
 10 11  2  0  0  0  0
 10 29  1  0  0  0  0
 11 12  1  0  0  0  0
 11 13  1  0  0  0  0
 13 14  2  0  0  0  0
 13 30  1  0  0  0  0
 14 15  1  0  0  0  0
 14 31  1  0  0  0  0
 15 16  1  0  0  0  0
 16 17  1  0  0  0  0
 17 18  1  0  0  0  0
 17 32  1  0  0  0  0
 17 33  1  0  0  0  0
 18 19  2  0  0  0  0
 18 20  1  0  0  0  0
 18 21  1  0  0  0  0
 22 23  1  0  0  0  0
 22 34  1  0  0  0  0
 23 24  1  0  0  0  0
 23 35  1  0  0  0  0
M  CHG  4  20  -1  21  -1  25   1  26   1
M  END
$$$$
